* File: lfsr.pex.netlist
* Created: Fri Dec  1 04:09:56 2023
* Program "Calibre xRC"
* Version "v2010.4_26.16"
* 
.subckt lfsr  STATE<15> STATE<14> STATE<13> STATE<12> STATE<11> STATE<10>
+ STATE<9> STATE<8> STATE<7> STATE<6> STATE<5> STATE<4> STATE<3> STATE<2>
+ STATE<1> STATE<0> RST VSS! CLK VDD!
* 
mXI23_XI12_XI0_MNMOS1 XI23_XI12_XI0_NET14 STATE<2> VSS! VSS! nch L=6e-08
+ W=3.5e-07 AD=4.725e-14 AS=1.1025e-13 PD=6.2e-07 PS=1.33e-06 NRD=0.385714
+ NRS=0.9 SA=3.15e-07 SB=5.9e-07 SCA=6.69093 SCB=0.00693307 SCC=0.000224189
mXI23_XI12_XI0_MNMOS0 XI23_XI12_NET11 STATE<0> XI23_XI12_XI0_NET14 VSS! nch
+ L=6e-08 W=3.5e-07 AD=9.1e-14 AS=4.725e-14 PD=1.22e-06 PS=6.2e-07 NRD=0.742857
+ NRS=0.385714 SA=6.45e-07 SB=2.6e-07 SCA=6.69093 SCB=0.00693307 SCC=0.000224189
mXI23_XI12_XI1_MNMOS1 XI23_XI12_XI1_NET14 XI23_XI12_NET11 VSS! VSS! nch L=6e-08
+ W=3.5e-07 AD=4.725e-14 AS=1.1025e-13 PD=6.2e-07 PS=1.33e-06 NRD=0.385714
+ NRS=0.9 SA=3.15e-07 SB=5.9e-07 SCA=6.69093 SCB=0.00693307 SCC=0.000224189
mXI23_XI12_XI1_MNMOS0 XI23_XI12_NET20 STATE<0> XI23_XI12_XI1_NET14 VSS! nch
+ L=6e-08 W=3.5e-07 AD=9.1e-14 AS=4.725e-14 PD=1.22e-06 PS=6.2e-07 NRD=0.742857
+ NRS=0.385714 SA=6.45e-07 SB=2.6e-07 SCA=6.69093 SCB=0.00693307 SCC=0.000224189
mXI23_XI12_XI2_MNMOS1 XI23_XI12_XI2_NET14 STATE<2> VSS! VSS! nch L=6e-08
+ W=3.5e-07 AD=4.725e-14 AS=1.1025e-13 PD=6.2e-07 PS=1.33e-06 NRD=0.385714
+ NRS=0.9 SA=3.15e-07 SB=5.9e-07 SCA=6.69093 SCB=0.00693307 SCC=0.000224189
mXI23_XI12_XI2_MNMOS0 XI23_XI12_NET19 XI23_XI12_NET11 XI23_XI12_XI2_NET14 VSS!
+ nch L=6e-08 W=3.5e-07 AD=9.1e-14 AS=4.725e-14 PD=1.22e-06 PS=6.2e-07
+ NRD=0.742857 NRS=0.385714 SA=6.45e-07 SB=2.6e-07 SCA=6.69093 SCB=0.00693307
+ SCC=0.000224189
mXI23_XI12_XI3_MNMOS1 XI23_XI12_XI3_NET14 XI23_XI12_NET19 VSS! VSS! nch L=6e-08
+ W=3.5e-07 AD=4.725e-14 AS=1.1025e-13 PD=6.2e-07 PS=1.33e-06 NRD=0.385714
+ NRS=0.9 SA=3.15e-07 SB=5.9e-07 SCA=6.69093 SCB=0.00693307 SCC=0.000224189
mXI23_XI12_XI3_MNMOS0 XI23_NET7 XI23_XI12_NET20 XI23_XI12_XI3_NET14 VSS! nch
+ L=6e-08 W=3.5e-07 AD=9.1e-14 AS=4.725e-14 PD=1.22e-06 PS=6.2e-07 NRD=0.742857
+ NRS=0.385714 SA=6.45e-07 SB=2.6e-07 SCA=6.69093 SCB=0.00693307 SCC=0.000224189
mXI23_XI14_XI0_MNMOS1 XI23_XI14_XI0_NET14 XI23_NET6 VSS! VSS! nch L=6e-08
+ W=3.5e-07 AD=4.725e-14 AS=1.1025e-13 PD=6.2e-07 PS=1.33e-06 NRD=0.385714
+ NRS=0.9 SA=5.9e-07 SB=3.15e-07 SCA=6.69093 SCB=0.00693307 SCC=0.000224189
mXI23_XI14_XI0_MNMOS0 XI23_XI14_NET11 XI23_NET7 XI23_XI14_XI0_NET14 VSS! nch
+ L=6e-08 W=3.5e-07 AD=9.1e-14 AS=4.725e-14 PD=1.22e-06 PS=6.2e-07 NRD=0.742857
+ NRS=0.385714 SA=2.6e-07 SB=6.45e-07 SCA=6.69093 SCB=0.00693307 SCC=0.000224189
mXI23_XI14_XI1_MNMOS1 XI23_XI14_XI1_NET14 XI23_XI14_NET11 VSS! VSS! nch L=6e-08
+ W=3.5e-07 AD=4.725e-14 AS=1.1025e-13 PD=6.2e-07 PS=1.33e-06 NRD=0.385714
+ NRS=0.9 SA=5.9e-07 SB=3.15e-07 SCA=6.69093 SCB=0.00693307 SCC=0.000224189
mXI23_XI14_XI1_MNMOS0 XI23_XI14_NET20 XI23_NET7 XI23_XI14_XI1_NET14 VSS! nch
+ L=6e-08 W=3.5e-07 AD=9.1e-14 AS=4.725e-14 PD=1.22e-06 PS=6.2e-07 NRD=0.742857
+ NRS=0.385714 SA=2.6e-07 SB=6.45e-07 SCA=6.69093 SCB=0.00693307 SCC=0.000224189
mXI23_XI14_XI2_MNMOS1 XI23_XI14_XI2_NET14 XI23_NET6 VSS! VSS! nch L=6e-08
+ W=3.5e-07 AD=4.725e-14 AS=1.1025e-13 PD=6.2e-07 PS=1.33e-06 NRD=0.385714
+ NRS=0.9 SA=5.9e-07 SB=3.15e-07 SCA=6.69093 SCB=0.00693307 SCC=0.000224189
mXI23_XI14_XI2_MNMOS0 XI23_XI14_NET19 XI23_XI14_NET11 XI23_XI14_XI2_NET14 VSS!
+ nch L=6e-08 W=3.5e-07 AD=9.1e-14 AS=4.725e-14 PD=1.22e-06 PS=6.2e-07
+ NRD=0.742857 NRS=0.385714 SA=2.6e-07 SB=6.45e-07 SCA=6.69093 SCB=0.00693307
+ SCC=0.000224189
mXI23_XI14_XI3_MNMOS1 XI23_XI14_XI3_NET14 XI23_XI14_NET19 VSS! VSS! nch L=6e-08
+ W=3.5e-07 AD=4.725e-14 AS=1.1025e-13 PD=6.2e-07 PS=1.33e-06 NRD=0.385714
+ NRS=0.9 SA=5.9e-07 SB=3.15e-07 SCA=6.69093 SCB=0.00693307 SCC=0.000224189
mXI23_XI14_XI3_MNMOS0 NET069 XI23_XI14_NET20 XI23_XI14_XI3_NET14 VSS! nch
+ L=6e-08 W=3.5e-07 AD=9.1e-14 AS=4.725e-14 PD=1.22e-06 PS=6.2e-07 NRD=0.742857
+ NRS=0.385714 SA=2.6e-07 SB=6.45e-07 SCA=6.69093 SCB=0.00693307 SCC=0.000224189
mXI23_XI13_XI0_MNMOS1 XI23_XI13_XI0_NET14 STATE<5> VSS! VSS! nch L=6e-08
+ W=3.5e-07 AD=4.725e-14 AS=1.1025e-13 PD=6.2e-07 PS=1.33e-06 NRD=0.385714
+ NRS=0.9 SA=5.9e-07 SB=3.15e-07 SCA=9.64852 SCB=0.00929583 SCC=0.000234749
mXI23_XI13_XI0_MNMOS0 XI23_XI13_NET11 STATE<3> XI23_XI13_XI0_NET14 VSS! nch
+ L=6e-08 W=3.5e-07 AD=9.1e-14 AS=4.725e-14 PD=1.22e-06 PS=6.2e-07 NRD=0.742857
+ NRS=0.385714 SA=2.6e-07 SB=6.45e-07 SCA=7.57923 SCB=0.00707234 SCC=0.000224212
mXI23_XI13_XI1_MNMOS1 XI23_XI13_XI1_NET14 XI23_XI13_NET11 VSS! VSS! nch L=6e-08
+ W=3.5e-07 AD=4.725e-14 AS=1.1025e-13 PD=6.2e-07 PS=1.33e-06 NRD=0.385714
+ NRS=0.9 SA=5.9e-07 SB=3.15e-07 SCA=6.60007 SCB=0.00693212 SCC=0.000224189
mXI23_XI13_XI1_MNMOS0 XI23_XI13_NET20 STATE<3> XI23_XI13_XI1_NET14 VSS! nch
+ L=6e-08 W=3.5e-07 AD=9.1e-14 AS=4.725e-14 PD=1.22e-06 PS=6.2e-07 NRD=0.742857
+ NRS=0.385714 SA=2.6e-07 SB=6.45e-07 SCA=6.50387 SCB=0.00693207 SCC=0.000224189
mXI23_XI13_XI2_MNMOS1 XI23_XI13_XI2_NET14 STATE<5> VSS! VSS! nch L=6e-08
+ W=3.5e-07 AD=4.725e-14 AS=1.1025e-13 PD=6.2e-07 PS=1.33e-06 NRD=0.385714
+ NRS=0.9 SA=5.9e-07 SB=3.15e-07 SCA=6.38688 SCB=0.00693207 SCC=0.000224189
mXI23_XI13_XI2_MNMOS0 XI23_XI13_NET19 XI23_XI13_NET11 XI23_XI13_XI2_NET14 VSS!
+ nch L=6e-08 W=3.5e-07 AD=9.1e-14 AS=4.725e-14 PD=1.22e-06 PS=6.2e-07
+ NRD=0.742857 NRS=0.385714 SA=2.6e-07 SB=6.45e-07 SCA=6.36481 SCB=0.00693207
+ SCC=0.000224189
mXI23_XI13_XI3_MNMOS1 XI23_XI13_XI3_NET14 XI23_XI13_NET19 VSS! VSS! nch L=6e-08
+ W=3.5e-07 AD=4.725e-14 AS=1.1025e-13 PD=6.2e-07 PS=1.33e-06 NRD=0.385714
+ NRS=0.9 SA=5.9e-07 SB=3.15e-07 SCA=6.32978 SCB=0.00693207 SCC=0.000224189
mXI23_XI13_XI3_MNMOS0 XI23_NET6 XI23_XI13_NET20 XI23_XI13_XI3_NET14 VSS! nch
+ L=6e-08 W=3.5e-07 AD=9.1e-14 AS=4.725e-14 PD=1.22e-06 PS=6.2e-07 NRD=0.742857
+ NRS=0.385714 SA=2.6e-07 SB=6.45e-07 SCA=6.32151 SCB=0.00693207 SCC=0.000224189
mXI22_XI0_MM1 NET064 XI22_NET7 VSS! VSS! nch L=6e-08 W=3e-07 AD=5.25e-14
+ AS=5.25e-14 PD=9.5e-07 PS=9.5e-07 NRD=0.583333 NRS=0.583333 SA=1.75e-07
+ SB=1.75e-07 SCA=6.19176 SCB=0.0062878 SCC=0.000156788
mXI22_XI1_MM3 XI22_NET7 RST VSS! VSS! nch L=6e-08 W=3.5e-07 AD=4.725e-14
+ AS=1.12e-13 PD=6.2e-07 PS=1.34e-06 NRD=0.385714 NRS=0.914286 SA=3.2e-07
+ SB=6.6e-07 SCA=8.83748 SCB=0.00815094 SCC=0.000226638
mXI22_XI1_MM2 XI22_NET7 NET069 VSS! VSS! nch L=6e-08 W=3.5e-07 AD=4.725e-14
+ AS=1.155e-13 PD=6.2e-07 PS=1.36e-06 NRD=0.385714 NRS=0.942857 SA=6.5e-07
+ SB=3.3e-07 SCA=7.36911 SCB=0.00700088 SCC=0.000224194
mXI0_XI12_MNMOS1 XI0_XI12_NET14 XI0_NET13 VSS! VSS! nch L=6e-08 W=3.5e-07
+ AD=4.725e-14 AS=1.1025e-13 PD=6.2e-07 PS=1.33e-06 NRD=0.385714 NRS=0.9
+ SA=5.9e-07 SB=3.15e-07 SCA=6.71438 SCB=0.00693307 SCC=0.000224189
mXI0_XI12_MNMOS0 XI0_NET17 XI0_NET024 XI0_XI12_NET14 VSS! nch L=6e-08 W=3.5e-07
+ AD=9.1e-14 AS=4.725e-14 PD=1.22e-06 PS=6.2e-07 NRD=0.742857 NRS=0.385714
+ SA=2.6e-07 SB=6.45e-07 SCA=6.72627 SCB=0.00693307 SCC=0.000224189
mXI0_XI9_XI0_MM1 XI0_NET024 VSS! VSS! VSS! nch L=6e-08 W=3e-07 AD=5.25e-14
+ AS=5.25e-14 PD=9.5e-07 PS=9.5e-07 NRD=0.583333 NRS=0.583333 SA=1.75e-07
+ SB=1.75e-07 SCA=6.40998 SCB=0.00628865 SCC=0.000156788
mXI0_XI0_MM1 XI0_NET7 NET064 VSS! VSS! nch L=6e-08 W=3e-07 AD=5.25e-14
+ AS=5.25e-14 PD=9.5e-07 PS=9.5e-07 NRD=0.583333 NRS=0.583333 SA=1.75e-07
+ SB=1.75e-07 SCA=6.40825 SCB=0.00628865 SCC=0.000156788
mXI0_XI1_MM1 XI0_NET13 XI0_NET9 VSS! VSS! nch L=6e-08 W=3e-07 AD=5.25e-14
+ AS=5.25e-14 PD=9.5e-07 PS=9.5e-07 NRD=0.583333 NRS=0.583333 SA=1.75e-07
+ SB=1.75e-07 SCA=6.29721 SCB=0.00628865 SCC=0.000156788
mXI0_XI3_MM1 XI0_NET033 XI0_NET016 VSS! VSS! nch L=6e-08 W=3e-07 AD=5.25e-14
+ AS=5.25e-14 PD=9.5e-07 PS=9.5e-07 NRD=0.583333 NRS=0.583333 SA=1.75e-07
+ SB=1.75e-07 SCA=6.26001 SCB=0.00628865 SCC=0.000156788
mXI0_XI13_MM1 STATE<15> XI0_NET033 VSS! VSS! nch L=6e-08 W=3e-07 AD=5.25e-14
+ AS=5.25e-14 PD=9.5e-07 PS=9.5e-07 NRD=0.583333 NRS=0.583333 SA=1.75e-07
+ SB=1.75e-07 SCA=6.25368 SCB=0.00628865 SCC=0.000156788
mXI0_XI8_XI0_MM1 XI0_NET028 CLK VSS! VSS! nch L=6e-08 W=3e-07 AD=5.25e-14
+ AS=5.25e-14 PD=9.5e-07 PS=9.5e-07 NRD=0.583333 NRS=0.583333 SA=1.75e-07
+ SB=1.75e-07 SCA=6.25368 SCB=0.00628865 SCC=0.000156788
mXI0_XI8_XI1_MM1 XI0_NET020 XI0_NET028 VSS! VSS! nch L=6e-08 W=3e-07
+ AD=5.25e-14 AS=5.25e-14 PD=9.5e-07 PS=9.5e-07 NRD=0.583333 NRS=0.583333
+ SA=1.75e-07 SB=1.75e-07 SCA=5.8726 SCB=0.00628771 SCC=0.000156788
mXI0_XI6_MM3 XI0_NET019 VSS! VSS! VSS! nch L=6e-08 W=3.5e-07 AD=4.725e-14
+ AS=1.12e-13 PD=6.2e-07 PS=1.34e-06 NRD=0.385714 NRS=0.914286 SA=3.2e-07
+ SB=6.6e-07 SCA=6.69093 SCB=0.00693307 SCC=0.000224189
mXI0_XI6_MM2 XI0_NET019 XI0_NET033 VSS! VSS! nch L=6e-08 W=3.5e-07 AD=4.725e-14
+ AS=1.155e-13 PD=6.2e-07 PS=1.36e-06 NRD=0.385714 NRS=0.942857 SA=6.5e-07
+ SB=3.3e-07 SCA=6.69093 SCB=0.00693307 SCC=0.000224189
mXI0_XI17_MM1 XI0_NET9 XI0_NET020 XI0_NET17 VSS! nch L=6e-08 W=3e-07 AD=5.4e-14
+ AS=5.25e-14 PD=9.6e-07 PS=9.5e-07 NRD=0.6 NRS=0.583333 SA=1.8e-07 SB=1.75e-07
+ SCA=9.92371 SCB=0.0114146 SCC=0.000646339
mXI0_XI14_MM1 XI0_NET7 XI0_NET028 XI0_NET9 VSS! nch L=6e-08 W=3e-07 AD=5.4e-14
+ AS=5.25e-14 PD=9.6e-07 PS=9.5e-07 NRD=0.6 NRS=0.583333 SA=1.8e-07 SB=1.75e-07
+ SCA=9.92371 SCB=0.0114146 SCC=0.000646339
mXI0_XI16_MM1 XI0_NET13 XI0_NET020 XI0_NET016 VSS! nch L=6e-08 W=3e-07
+ AD=5.4e-14 AS=5.25e-14 PD=9.6e-07 PS=9.5e-07 NRD=0.6 NRS=0.583333 SA=1.8e-07
+ SB=1.75e-07 SCA=9.86266 SCB=0.0114146 SCC=0.000646339
mXI0_XI15_MM1 XI0_NET016 XI0_NET028 XI0_NET019 VSS! nch L=6e-08 W=3e-07
+ AD=5.4e-14 AS=5.25e-14 PD=9.6e-07 PS=9.5e-07 NRD=0.6 NRS=0.583333 SA=1.8e-07
+ SB=1.75e-07 SCA=9.84814 SCB=0.0114146 SCC=0.000646339
mXI1_XI12_MNMOS1 XI1_XI12_NET14 XI1_NET13 VSS! VSS! nch L=6e-08 W=3.5e-07
+ AD=4.725e-14 AS=1.1025e-13 PD=6.2e-07 PS=1.33e-06 NRD=0.385714 NRS=0.9
+ SA=5.9e-07 SB=3.15e-07 SCA=6.69093 SCB=0.00693307 SCC=0.000224189
mXI1_XI12_MNMOS0 XI1_NET17 XI1_NET024 XI1_XI12_NET14 VSS! nch L=6e-08 W=3.5e-07
+ AD=9.1e-14 AS=4.725e-14 PD=1.22e-06 PS=6.2e-07 NRD=0.742857 NRS=0.385714
+ SA=2.6e-07 SB=6.45e-07 SCA=6.69093 SCB=0.00693307 SCC=0.000224189
mXI1_XI9_XI0_MM1 XI1_NET024 RST VSS! VSS! nch L=6e-08 W=3e-07 AD=5.25e-14
+ AS=5.25e-14 PD=9.5e-07 PS=9.5e-07 NRD=0.583333 NRS=0.583333 SA=1.75e-07
+ SB=1.75e-07 SCA=6.25368 SCB=0.00628865 SCC=0.000156788
mXI1_XI0_MM1 XI1_NET7 STATE<15> VSS! VSS! nch L=6e-08 W=3e-07 AD=5.25e-14
+ AS=5.25e-14 PD=9.5e-07 PS=9.5e-07 NRD=0.583333 NRS=0.583333 SA=1.75e-07
+ SB=1.75e-07 SCA=6.25368 SCB=0.00628865 SCC=0.000156788
mXI1_XI1_MM1 XI1_NET13 XI1_NET9 VSS! VSS! nch L=6e-08 W=3e-07 AD=5.25e-14
+ AS=5.25e-14 PD=9.5e-07 PS=9.5e-07 NRD=0.583333 NRS=0.583333 SA=1.75e-07
+ SB=1.75e-07 SCA=6.25368 SCB=0.00628865 SCC=0.000156788
mXI1_XI3_MM1 XI1_NET033 XI1_NET016 VSS! VSS! nch L=6e-08 W=3e-07 AD=5.25e-14
+ AS=5.25e-14 PD=9.5e-07 PS=9.5e-07 NRD=0.583333 NRS=0.583333 SA=1.75e-07
+ SB=1.75e-07 SCA=6.25368 SCB=0.00628865 SCC=0.000156788
mXI1_XI13_MM1 STATE<14> XI1_NET033 VSS! VSS! nch L=6e-08 W=3e-07 AD=5.25e-14
+ AS=5.25e-14 PD=9.5e-07 PS=9.5e-07 NRD=0.583333 NRS=0.583333 SA=1.75e-07
+ SB=1.75e-07 SCA=6.25368 SCB=0.00628865 SCC=0.000156788
mXI1_XI8_XI0_MM1 XI1_NET028 CLK VSS! VSS! nch L=6e-08 W=3e-07 AD=5.25e-14
+ AS=5.25e-14 PD=9.5e-07 PS=9.5e-07 NRD=0.583333 NRS=0.583333 SA=1.75e-07
+ SB=1.75e-07 SCA=6.25368 SCB=0.00628865 SCC=0.000156788
mXI1_XI8_XI1_MM1 XI1_NET020 XI1_NET028 VSS! VSS! nch L=6e-08 W=3e-07
+ AD=5.25e-14 AS=5.25e-14 PD=9.5e-07 PS=9.5e-07 NRD=0.583333 NRS=0.583333
+ SA=1.75e-07 SB=1.75e-07 SCA=5.8726 SCB=0.00628771 SCC=0.000156788
mXI1_XI6_MM3 XI1_NET019 RST VSS! VSS! nch L=6e-08 W=3.5e-07 AD=4.725e-14
+ AS=1.12e-13 PD=6.2e-07 PS=1.34e-06 NRD=0.385714 NRS=0.914286 SA=3.2e-07
+ SB=6.6e-07 SCA=6.69093 SCB=0.00693307 SCC=0.000224189
mXI1_XI6_MM2 XI1_NET019 XI1_NET033 VSS! VSS! nch L=6e-08 W=3.5e-07 AD=4.725e-14
+ AS=1.155e-13 PD=6.2e-07 PS=1.36e-06 NRD=0.385714 NRS=0.942857 SA=6.5e-07
+ SB=3.3e-07 SCA=6.69093 SCB=0.00693307 SCC=0.000224189
mXI1_XI17_MM1 XI1_NET9 XI1_NET020 XI1_NET17 VSS! nch L=6e-08 W=3e-07 AD=5.4e-14
+ AS=5.25e-14 PD=9.6e-07 PS=9.5e-07 NRD=0.6 NRS=0.583333 SA=1.8e-07 SB=1.75e-07
+ SCA=9.84181 SCB=0.0114146 SCC=0.000646339
mXI1_XI14_MM1 XI1_NET7 XI1_NET028 XI1_NET9 VSS! nch L=6e-08 W=3e-07 AD=5.4e-14
+ AS=5.25e-14 PD=9.6e-07 PS=9.5e-07 NRD=0.6 NRS=0.583333 SA=1.8e-07 SB=1.75e-07
+ SCA=9.84181 SCB=0.0114146 SCC=0.000646339
mXI1_XI16_MM1 XI1_NET13 XI1_NET020 XI1_NET016 VSS! nch L=6e-08 W=3e-07
+ AD=5.4e-14 AS=5.25e-14 PD=9.6e-07 PS=9.5e-07 NRD=0.6 NRS=0.583333 SA=1.8e-07
+ SB=1.75e-07 SCA=9.84181 SCB=0.0114146 SCC=0.000646339
mXI1_XI15_MM1 XI1_NET016 XI1_NET028 XI1_NET019 VSS! nch L=6e-08 W=3e-07
+ AD=5.4e-14 AS=5.25e-14 PD=9.6e-07 PS=9.5e-07 NRD=0.6 NRS=0.583333 SA=1.8e-07
+ SB=1.75e-07 SCA=9.84181 SCB=0.0114146 SCC=0.000646339
mXI2_XI12_MNMOS1 XI2_XI12_NET14 XI2_NET13 VSS! VSS! nch L=6e-08 W=3.5e-07
+ AD=4.725e-14 AS=1.1025e-13 PD=6.2e-07 PS=1.33e-06 NRD=0.385714 NRS=0.9
+ SA=5.9e-07 SB=3.15e-07 SCA=6.69093 SCB=0.00693307 SCC=0.000224189
mXI2_XI12_MNMOS0 XI2_NET17 XI2_NET024 XI2_XI12_NET14 VSS! nch L=6e-08 W=3.5e-07
+ AD=9.1e-14 AS=4.725e-14 PD=1.22e-06 PS=6.2e-07 NRD=0.742857 NRS=0.385714
+ SA=2.6e-07 SB=6.45e-07 SCA=6.69093 SCB=0.00693307 SCC=0.000224189
mXI2_XI9_XI0_MM1 XI2_NET024 RST VSS! VSS! nch L=6e-08 W=3e-07 AD=5.25e-14
+ AS=5.25e-14 PD=9.5e-07 PS=9.5e-07 NRD=0.583333 NRS=0.583333 SA=1.75e-07
+ SB=1.75e-07 SCA=6.25368 SCB=0.00628865 SCC=0.000156788
mXI2_XI0_MM1 XI2_NET7 STATE<14> VSS! VSS! nch L=6e-08 W=3e-07 AD=5.25e-14
+ AS=5.25e-14 PD=9.5e-07 PS=9.5e-07 NRD=0.583333 NRS=0.583333 SA=1.75e-07
+ SB=1.75e-07 SCA=6.25368 SCB=0.00628865 SCC=0.000156788
mXI2_XI1_MM1 XI2_NET13 XI2_NET9 VSS! VSS! nch L=6e-08 W=3e-07 AD=5.25e-14
+ AS=5.25e-14 PD=9.5e-07 PS=9.5e-07 NRD=0.583333 NRS=0.583333 SA=1.75e-07
+ SB=1.75e-07 SCA=6.25368 SCB=0.00628865 SCC=0.000156788
mXI2_XI3_MM1 XI2_NET033 XI2_NET016 VSS! VSS! nch L=6e-08 W=3e-07 AD=5.25e-14
+ AS=5.25e-14 PD=9.5e-07 PS=9.5e-07 NRD=0.583333 NRS=0.583333 SA=1.75e-07
+ SB=1.75e-07 SCA=6.25368 SCB=0.00628865 SCC=0.000156788
mXI2_XI13_MM1 STATE<13> XI2_NET033 VSS! VSS! nch L=6e-08 W=3e-07 AD=5.25e-14
+ AS=5.25e-14 PD=9.5e-07 PS=9.5e-07 NRD=0.583333 NRS=0.583333 SA=1.75e-07
+ SB=1.75e-07 SCA=6.25368 SCB=0.00628865 SCC=0.000156788
mXI2_XI8_XI0_MM1 XI2_NET028 CLK VSS! VSS! nch L=6e-08 W=3e-07 AD=5.25e-14
+ AS=5.25e-14 PD=9.5e-07 PS=9.5e-07 NRD=0.583333 NRS=0.583333 SA=1.75e-07
+ SB=1.75e-07 SCA=6.25368 SCB=0.00628865 SCC=0.000156788
mXI2_XI8_XI1_MM1 XI2_NET020 XI2_NET028 VSS! VSS! nch L=6e-08 W=3e-07
+ AD=5.25e-14 AS=5.25e-14 PD=9.5e-07 PS=9.5e-07 NRD=0.583333 NRS=0.583333
+ SA=1.75e-07 SB=1.75e-07 SCA=5.8726 SCB=0.00628771 SCC=0.000156788
mXI2_XI6_MM3 XI2_NET019 RST VSS! VSS! nch L=6e-08 W=3.5e-07 AD=4.725e-14
+ AS=1.12e-13 PD=6.2e-07 PS=1.34e-06 NRD=0.385714 NRS=0.914286 SA=3.2e-07
+ SB=6.6e-07 SCA=6.69093 SCB=0.00693307 SCC=0.000224189
mXI2_XI6_MM2 XI2_NET019 XI2_NET033 VSS! VSS! nch L=6e-08 W=3.5e-07 AD=4.725e-14
+ AS=1.155e-13 PD=6.2e-07 PS=1.36e-06 NRD=0.385714 NRS=0.942857 SA=6.5e-07
+ SB=3.3e-07 SCA=6.69093 SCB=0.00693307 SCC=0.000224189
mXI2_XI17_MM1 XI2_NET9 XI2_NET020 XI2_NET17 VSS! nch L=6e-08 W=3e-07 AD=5.4e-14
+ AS=5.25e-14 PD=9.6e-07 PS=9.5e-07 NRD=0.6 NRS=0.583333 SA=1.8e-07 SB=1.75e-07
+ SCA=9.84181 SCB=0.0114146 SCC=0.000646339
mXI2_XI14_MM1 XI2_NET7 XI2_NET028 XI2_NET9 VSS! nch L=6e-08 W=3e-07 AD=5.4e-14
+ AS=5.25e-14 PD=9.6e-07 PS=9.5e-07 NRD=0.6 NRS=0.583333 SA=1.8e-07 SB=1.75e-07
+ SCA=9.84181 SCB=0.0114146 SCC=0.000646339
mXI2_XI16_MM1 XI2_NET13 XI2_NET020 XI2_NET016 VSS! nch L=6e-08 W=3e-07
+ AD=5.4e-14 AS=5.25e-14 PD=9.6e-07 PS=9.5e-07 NRD=0.6 NRS=0.583333 SA=1.8e-07
+ SB=1.75e-07 SCA=9.84181 SCB=0.0114146 SCC=0.000646339
mXI2_XI15_MM1 XI2_NET016 XI2_NET028 XI2_NET019 VSS! nch L=6e-08 W=3e-07
+ AD=5.4e-14 AS=5.25e-14 PD=9.6e-07 PS=9.5e-07 NRD=0.6 NRS=0.583333 SA=1.8e-07
+ SB=1.75e-07 SCA=9.84181 SCB=0.0114146 SCC=0.000646339
mXI3_XI12_MNMOS1 XI3_XI12_NET14 XI3_NET13 VSS! VSS! nch L=6e-08 W=3.5e-07
+ AD=4.725e-14 AS=1.1025e-13 PD=6.2e-07 PS=1.33e-06 NRD=0.385714 NRS=0.9
+ SA=5.9e-07 SB=3.15e-07 SCA=6.69093 SCB=0.00693307 SCC=0.000224189
mXI3_XI12_MNMOS0 XI3_NET17 XI3_NET024 XI3_XI12_NET14 VSS! nch L=6e-08 W=3.5e-07
+ AD=9.1e-14 AS=4.725e-14 PD=1.22e-06 PS=6.2e-07 NRD=0.742857 NRS=0.385714
+ SA=2.6e-07 SB=6.45e-07 SCA=6.69093 SCB=0.00693307 SCC=0.000224189
mXI3_XI9_XI0_MM1 XI3_NET024 RST VSS! VSS! nch L=6e-08 W=3e-07 AD=5.25e-14
+ AS=5.25e-14 PD=9.5e-07 PS=9.5e-07 NRD=0.583333 NRS=0.583333 SA=1.75e-07
+ SB=1.75e-07 SCA=6.25368 SCB=0.00628865 SCC=0.000156788
mXI3_XI0_MM1 XI3_NET7 STATE<13> VSS! VSS! nch L=6e-08 W=3e-07 AD=5.25e-14
+ AS=5.25e-14 PD=9.5e-07 PS=9.5e-07 NRD=0.583333 NRS=0.583333 SA=1.75e-07
+ SB=1.75e-07 SCA=6.25368 SCB=0.00628865 SCC=0.000156788
mXI3_XI1_MM1 XI3_NET13 XI3_NET9 VSS! VSS! nch L=6e-08 W=3e-07 AD=5.25e-14
+ AS=5.25e-14 PD=9.5e-07 PS=9.5e-07 NRD=0.583333 NRS=0.583333 SA=1.75e-07
+ SB=1.75e-07 SCA=6.25368 SCB=0.00628865 SCC=0.000156788
mXI3_XI3_MM1 XI3_NET033 XI3_NET016 VSS! VSS! nch L=6e-08 W=3e-07 AD=5.25e-14
+ AS=5.25e-14 PD=9.5e-07 PS=9.5e-07 NRD=0.583333 NRS=0.583333 SA=1.75e-07
+ SB=1.75e-07 SCA=6.25368 SCB=0.00628865 SCC=0.000156788
mXI3_XI13_MM1 STATE<12> XI3_NET033 VSS! VSS! nch L=6e-08 W=3e-07 AD=5.25e-14
+ AS=5.25e-14 PD=9.5e-07 PS=9.5e-07 NRD=0.583333 NRS=0.583333 SA=1.75e-07
+ SB=1.75e-07 SCA=6.25368 SCB=0.00628865 SCC=0.000156788
mXI3_XI8_XI0_MM1 XI3_NET028 CLK VSS! VSS! nch L=6e-08 W=3e-07 AD=5.25e-14
+ AS=5.25e-14 PD=9.5e-07 PS=9.5e-07 NRD=0.583333 NRS=0.583333 SA=1.75e-07
+ SB=1.75e-07 SCA=6.25368 SCB=0.00628865 SCC=0.000156788
mXI3_XI8_XI1_MM1 XI3_NET020 XI3_NET028 VSS! VSS! nch L=6e-08 W=3e-07
+ AD=5.25e-14 AS=5.25e-14 PD=9.5e-07 PS=9.5e-07 NRD=0.583333 NRS=0.583333
+ SA=1.75e-07 SB=1.75e-07 SCA=5.8726 SCB=0.00628771 SCC=0.000156788
mXI3_XI6_MM3 XI3_NET019 RST VSS! VSS! nch L=6e-08 W=3.5e-07 AD=4.725e-14
+ AS=1.12e-13 PD=6.2e-07 PS=1.34e-06 NRD=0.385714 NRS=0.914286 SA=3.2e-07
+ SB=6.6e-07 SCA=6.69093 SCB=0.00693307 SCC=0.000224189
mXI3_XI6_MM2 XI3_NET019 XI3_NET033 VSS! VSS! nch L=6e-08 W=3.5e-07 AD=4.725e-14
+ AS=1.155e-13 PD=6.2e-07 PS=1.36e-06 NRD=0.385714 NRS=0.942857 SA=6.5e-07
+ SB=3.3e-07 SCA=6.69093 SCB=0.00693307 SCC=0.000224189
mXI3_XI17_MM1 XI3_NET9 XI3_NET020 XI3_NET17 VSS! nch L=6e-08 W=3e-07 AD=5.4e-14
+ AS=5.25e-14 PD=9.6e-07 PS=9.5e-07 NRD=0.6 NRS=0.583333 SA=1.8e-07 SB=1.75e-07
+ SCA=9.84181 SCB=0.0114146 SCC=0.000646339
mXI3_XI14_MM1 XI3_NET7 XI3_NET028 XI3_NET9 VSS! nch L=6e-08 W=3e-07 AD=5.4e-14
+ AS=5.25e-14 PD=9.6e-07 PS=9.5e-07 NRD=0.6 NRS=0.583333 SA=1.8e-07 SB=1.75e-07
+ SCA=9.84181 SCB=0.0114146 SCC=0.000646339
mXI3_XI16_MM1 XI3_NET13 XI3_NET020 XI3_NET016 VSS! nch L=6e-08 W=3e-07
+ AD=5.4e-14 AS=5.25e-14 PD=9.6e-07 PS=9.5e-07 NRD=0.6 NRS=0.583333 SA=1.8e-07
+ SB=1.75e-07 SCA=9.84181 SCB=0.0114146 SCC=0.000646339
mXI3_XI15_MM1 XI3_NET016 XI3_NET028 XI3_NET019 VSS! nch L=6e-08 W=3e-07
+ AD=5.4e-14 AS=5.25e-14 PD=9.6e-07 PS=9.5e-07 NRD=0.6 NRS=0.583333 SA=1.8e-07
+ SB=1.75e-07 SCA=9.84181 SCB=0.0114146 SCC=0.000646339
mXI4_XI12_MNMOS1 XI4_XI12_NET14 XI4_NET13 VSS! VSS! nch L=6e-08 W=3.5e-07
+ AD=4.725e-14 AS=1.1025e-13 PD=6.2e-07 PS=1.33e-06 NRD=0.385714 NRS=0.9
+ SA=5.9e-07 SB=3.15e-07 SCA=6.69093 SCB=0.00693307 SCC=0.000224189
mXI4_XI12_MNMOS0 XI4_NET17 XI4_NET024 XI4_XI12_NET14 VSS! nch L=6e-08 W=3.5e-07
+ AD=9.1e-14 AS=4.725e-14 PD=1.22e-06 PS=6.2e-07 NRD=0.742857 NRS=0.385714
+ SA=2.6e-07 SB=6.45e-07 SCA=6.69093 SCB=0.00693307 SCC=0.000224189
mXI4_XI9_XI0_MM1 XI4_NET024 RST VSS! VSS! nch L=6e-08 W=3e-07 AD=5.25e-14
+ AS=5.25e-14 PD=9.5e-07 PS=9.5e-07 NRD=0.583333 NRS=0.583333 SA=1.75e-07
+ SB=1.75e-07 SCA=6.25368 SCB=0.00628865 SCC=0.000156788
mXI4_XI0_MM1 XI4_NET7 STATE<12> VSS! VSS! nch L=6e-08 W=3e-07 AD=5.25e-14
+ AS=5.25e-14 PD=9.5e-07 PS=9.5e-07 NRD=0.583333 NRS=0.583333 SA=1.75e-07
+ SB=1.75e-07 SCA=6.25368 SCB=0.00628865 SCC=0.000156788
mXI4_XI1_MM1 XI4_NET13 XI4_NET9 VSS! VSS! nch L=6e-08 W=3e-07 AD=5.25e-14
+ AS=5.25e-14 PD=9.5e-07 PS=9.5e-07 NRD=0.583333 NRS=0.583333 SA=1.75e-07
+ SB=1.75e-07 SCA=6.25368 SCB=0.00628865 SCC=0.000156788
mXI4_XI3_MM1 XI4_NET033 XI4_NET016 VSS! VSS! nch L=6e-08 W=3e-07 AD=5.25e-14
+ AS=5.25e-14 PD=9.5e-07 PS=9.5e-07 NRD=0.583333 NRS=0.583333 SA=1.75e-07
+ SB=1.75e-07 SCA=6.25368 SCB=0.00628865 SCC=0.000156788
mXI4_XI13_MM1 STATE<11> XI4_NET033 VSS! VSS! nch L=6e-08 W=3e-07 AD=5.25e-14
+ AS=5.25e-14 PD=9.5e-07 PS=9.5e-07 NRD=0.583333 NRS=0.583333 SA=1.75e-07
+ SB=1.75e-07 SCA=6.25368 SCB=0.00628865 SCC=0.000156788
mXI4_XI8_XI0_MM1 XI4_NET028 CLK VSS! VSS! nch L=6e-08 W=3e-07 AD=5.25e-14
+ AS=5.25e-14 PD=9.5e-07 PS=9.5e-07 NRD=0.583333 NRS=0.583333 SA=1.75e-07
+ SB=1.75e-07 SCA=6.25368 SCB=0.00628865 SCC=0.000156788
mXI4_XI8_XI1_MM1 XI4_NET020 XI4_NET028 VSS! VSS! nch L=6e-08 W=3e-07
+ AD=5.25e-14 AS=5.25e-14 PD=9.5e-07 PS=9.5e-07 NRD=0.583333 NRS=0.583333
+ SA=1.75e-07 SB=1.75e-07 SCA=5.8726 SCB=0.00628771 SCC=0.000156788
mXI4_XI6_MM3 XI4_NET019 RST VSS! VSS! nch L=6e-08 W=3.5e-07 AD=4.725e-14
+ AS=1.12e-13 PD=6.2e-07 PS=1.34e-06 NRD=0.385714 NRS=0.914286 SA=3.2e-07
+ SB=6.6e-07 SCA=6.69093 SCB=0.00693307 SCC=0.000224189
mXI4_XI6_MM2 XI4_NET019 XI4_NET033 VSS! VSS! nch L=6e-08 W=3.5e-07 AD=4.725e-14
+ AS=1.155e-13 PD=6.2e-07 PS=1.36e-06 NRD=0.385714 NRS=0.942857 SA=6.5e-07
+ SB=3.3e-07 SCA=6.69093 SCB=0.00693307 SCC=0.000224189
mXI4_XI17_MM1 XI4_NET9 XI4_NET020 XI4_NET17 VSS! nch L=6e-08 W=3e-07 AD=5.4e-14
+ AS=5.25e-14 PD=9.6e-07 PS=9.5e-07 NRD=0.6 NRS=0.583333 SA=1.8e-07 SB=1.75e-07
+ SCA=9.84181 SCB=0.0114146 SCC=0.000646339
mXI4_XI14_MM1 XI4_NET7 XI4_NET028 XI4_NET9 VSS! nch L=6e-08 W=3e-07 AD=5.4e-14
+ AS=5.25e-14 PD=9.6e-07 PS=9.5e-07 NRD=0.6 NRS=0.583333 SA=1.8e-07 SB=1.75e-07
+ SCA=9.84181 SCB=0.0114146 SCC=0.000646339
mXI4_XI16_MM1 XI4_NET13 XI4_NET020 XI4_NET016 VSS! nch L=6e-08 W=3e-07
+ AD=5.4e-14 AS=5.25e-14 PD=9.6e-07 PS=9.5e-07 NRD=0.6 NRS=0.583333 SA=1.8e-07
+ SB=1.75e-07 SCA=9.84181 SCB=0.0114146 SCC=0.000646339
mXI4_XI15_MM1 XI4_NET016 XI4_NET028 XI4_NET019 VSS! nch L=6e-08 W=3e-07
+ AD=5.4e-14 AS=5.25e-14 PD=9.6e-07 PS=9.5e-07 NRD=0.6 NRS=0.583333 SA=1.8e-07
+ SB=1.75e-07 SCA=9.84181 SCB=0.0114146 SCC=0.000646339
mXI5_XI12_MNMOS1 XI5_XI12_NET14 XI5_NET13 VSS! VSS! nch L=6e-08 W=3.5e-07
+ AD=4.725e-14 AS=1.1025e-13 PD=6.2e-07 PS=1.33e-06 NRD=0.385714 NRS=0.9
+ SA=5.9e-07 SB=3.15e-07 SCA=6.69093 SCB=0.00693307 SCC=0.000224189
mXI5_XI12_MNMOS0 XI5_NET17 XI5_NET024 XI5_XI12_NET14 VSS! nch L=6e-08 W=3.5e-07
+ AD=9.1e-14 AS=4.725e-14 PD=1.22e-06 PS=6.2e-07 NRD=0.742857 NRS=0.385714
+ SA=2.6e-07 SB=6.45e-07 SCA=6.69093 SCB=0.00693307 SCC=0.000224189
mXI5_XI9_XI0_MM1 XI5_NET024 RST VSS! VSS! nch L=6e-08 W=3e-07 AD=5.25e-14
+ AS=5.25e-14 PD=9.5e-07 PS=9.5e-07 NRD=0.583333 NRS=0.583333 SA=1.75e-07
+ SB=1.75e-07 SCA=6.25368 SCB=0.00628865 SCC=0.000156788
mXI5_XI0_MM1 XI5_NET7 STATE<11> VSS! VSS! nch L=6e-08 W=3e-07 AD=5.25e-14
+ AS=5.25e-14 PD=9.5e-07 PS=9.5e-07 NRD=0.583333 NRS=0.583333 SA=1.75e-07
+ SB=1.75e-07 SCA=6.25368 SCB=0.00628865 SCC=0.000156788
mXI5_XI1_MM1 XI5_NET13 XI5_NET9 VSS! VSS! nch L=6e-08 W=3e-07 AD=5.25e-14
+ AS=5.25e-14 PD=9.5e-07 PS=9.5e-07 NRD=0.583333 NRS=0.583333 SA=1.75e-07
+ SB=1.75e-07 SCA=6.25368 SCB=0.00628865 SCC=0.000156788
mXI5_XI3_MM1 XI5_NET033 XI5_NET016 VSS! VSS! nch L=6e-08 W=3e-07 AD=5.25e-14
+ AS=5.25e-14 PD=9.5e-07 PS=9.5e-07 NRD=0.583333 NRS=0.583333 SA=1.75e-07
+ SB=1.75e-07 SCA=6.25368 SCB=0.00628865 SCC=0.000156788
mXI5_XI13_MM1 STATE<10> XI5_NET033 VSS! VSS! nch L=6e-08 W=3e-07 AD=5.25e-14
+ AS=5.25e-14 PD=9.5e-07 PS=9.5e-07 NRD=0.583333 NRS=0.583333 SA=1.75e-07
+ SB=1.75e-07 SCA=6.25368 SCB=0.00628865 SCC=0.000156788
mXI5_XI8_XI0_MM1 XI5_NET028 CLK VSS! VSS! nch L=6e-08 W=3e-07 AD=5.25e-14
+ AS=5.25e-14 PD=9.5e-07 PS=9.5e-07 NRD=0.583333 NRS=0.583333 SA=1.75e-07
+ SB=1.75e-07 SCA=6.25368 SCB=0.00628865 SCC=0.000156788
mXI5_XI8_XI1_MM1 XI5_NET020 XI5_NET028 VSS! VSS! nch L=6e-08 W=3e-07
+ AD=5.25e-14 AS=5.25e-14 PD=9.5e-07 PS=9.5e-07 NRD=0.583333 NRS=0.583333
+ SA=1.75e-07 SB=1.75e-07 SCA=5.8726 SCB=0.00628771 SCC=0.000156788
mXI5_XI6_MM3 XI5_NET019 RST VSS! VSS! nch L=6e-08 W=3.5e-07 AD=4.725e-14
+ AS=1.12e-13 PD=6.2e-07 PS=1.34e-06 NRD=0.385714 NRS=0.914286 SA=3.2e-07
+ SB=6.6e-07 SCA=6.69093 SCB=0.00693307 SCC=0.000224189
mXI5_XI6_MM2 XI5_NET019 XI5_NET033 VSS! VSS! nch L=6e-08 W=3.5e-07 AD=4.725e-14
+ AS=1.155e-13 PD=6.2e-07 PS=1.36e-06 NRD=0.385714 NRS=0.942857 SA=6.5e-07
+ SB=3.3e-07 SCA=6.69093 SCB=0.00693307 SCC=0.000224189
mXI5_XI17_MM1 XI5_NET9 XI5_NET020 XI5_NET17 VSS! nch L=6e-08 W=3e-07 AD=5.4e-14
+ AS=5.25e-14 PD=9.6e-07 PS=9.5e-07 NRD=0.6 NRS=0.583333 SA=1.8e-07 SB=1.75e-07
+ SCA=9.84181 SCB=0.0114146 SCC=0.000646339
mXI5_XI14_MM1 XI5_NET7 XI5_NET028 XI5_NET9 VSS! nch L=6e-08 W=3e-07 AD=5.4e-14
+ AS=5.25e-14 PD=9.6e-07 PS=9.5e-07 NRD=0.6 NRS=0.583333 SA=1.8e-07 SB=1.75e-07
+ SCA=9.84181 SCB=0.0114146 SCC=0.000646339
mXI5_XI16_MM1 XI5_NET13 XI5_NET020 XI5_NET016 VSS! nch L=6e-08 W=3e-07
+ AD=5.4e-14 AS=5.25e-14 PD=9.6e-07 PS=9.5e-07 NRD=0.6 NRS=0.583333 SA=1.8e-07
+ SB=1.75e-07 SCA=9.84181 SCB=0.0114146 SCC=0.000646339
mXI5_XI15_MM1 XI5_NET016 XI5_NET028 XI5_NET019 VSS! nch L=6e-08 W=3e-07
+ AD=5.4e-14 AS=5.25e-14 PD=9.6e-07 PS=9.5e-07 NRD=0.6 NRS=0.583333 SA=1.8e-07
+ SB=1.75e-07 SCA=9.84181 SCB=0.0114146 SCC=0.000646339
mXI6_XI12_MNMOS1 XI6_XI12_NET14 XI6_NET13 VSS! VSS! nch L=6e-08 W=3.5e-07
+ AD=4.725e-14 AS=1.1025e-13 PD=6.2e-07 PS=1.33e-06 NRD=0.385714 NRS=0.9
+ SA=5.9e-07 SB=3.15e-07 SCA=6.69093 SCB=0.00693307 SCC=0.000224189
mXI6_XI12_MNMOS0 XI6_NET17 XI6_NET024 XI6_XI12_NET14 VSS! nch L=6e-08 W=3.5e-07
+ AD=9.1e-14 AS=4.725e-14 PD=1.22e-06 PS=6.2e-07 NRD=0.742857 NRS=0.385714
+ SA=2.6e-07 SB=6.45e-07 SCA=6.69093 SCB=0.00693307 SCC=0.000224189
mXI6_XI9_XI0_MM1 XI6_NET024 RST VSS! VSS! nch L=6e-08 W=3e-07 AD=5.25e-14
+ AS=5.25e-14 PD=9.5e-07 PS=9.5e-07 NRD=0.583333 NRS=0.583333 SA=1.75e-07
+ SB=1.75e-07 SCA=6.25368 SCB=0.00628865 SCC=0.000156788
mXI6_XI0_MM1 XI6_NET7 STATE<10> VSS! VSS! nch L=6e-08 W=3e-07 AD=5.25e-14
+ AS=5.25e-14 PD=9.5e-07 PS=9.5e-07 NRD=0.583333 NRS=0.583333 SA=1.75e-07
+ SB=1.75e-07 SCA=6.25368 SCB=0.00628865 SCC=0.000156788
mXI6_XI1_MM1 XI6_NET13 XI6_NET9 VSS! VSS! nch L=6e-08 W=3e-07 AD=5.25e-14
+ AS=5.25e-14 PD=9.5e-07 PS=9.5e-07 NRD=0.583333 NRS=0.583333 SA=1.75e-07
+ SB=1.75e-07 SCA=6.25368 SCB=0.00628865 SCC=0.000156788
mXI6_XI3_MM1 XI6_NET033 XI6_NET016 VSS! VSS! nch L=6e-08 W=3e-07 AD=5.25e-14
+ AS=5.25e-14 PD=9.5e-07 PS=9.5e-07 NRD=0.583333 NRS=0.583333 SA=1.75e-07
+ SB=1.75e-07 SCA=6.25368 SCB=0.00628865 SCC=0.000156788
mXI6_XI13_MM1 STATE<9> XI6_NET033 VSS! VSS! nch L=6e-08 W=3e-07 AD=5.25e-14
+ AS=5.25e-14 PD=9.5e-07 PS=9.5e-07 NRD=0.583333 NRS=0.583333 SA=1.75e-07
+ SB=1.75e-07 SCA=6.25368 SCB=0.00628865 SCC=0.000156788
mXI6_XI8_XI0_MM1 XI6_NET028 CLK VSS! VSS! nch L=6e-08 W=3e-07 AD=5.25e-14
+ AS=5.25e-14 PD=9.5e-07 PS=9.5e-07 NRD=0.583333 NRS=0.583333 SA=1.75e-07
+ SB=1.75e-07 SCA=6.25368 SCB=0.00628865 SCC=0.000156788
mXI6_XI8_XI1_MM1 XI6_NET020 XI6_NET028 VSS! VSS! nch L=6e-08 W=3e-07
+ AD=5.25e-14 AS=5.25e-14 PD=9.5e-07 PS=9.5e-07 NRD=0.583333 NRS=0.583333
+ SA=1.75e-07 SB=1.75e-07 SCA=5.8726 SCB=0.00628771 SCC=0.000156788
mXI6_XI6_MM3 XI6_NET019 RST VSS! VSS! nch L=6e-08 W=3.5e-07 AD=4.725e-14
+ AS=1.12e-13 PD=6.2e-07 PS=1.34e-06 NRD=0.385714 NRS=0.914286 SA=3.2e-07
+ SB=6.6e-07 SCA=6.69093 SCB=0.00693307 SCC=0.000224189
mXI6_XI6_MM2 XI6_NET019 XI6_NET033 VSS! VSS! nch L=6e-08 W=3.5e-07 AD=4.725e-14
+ AS=1.155e-13 PD=6.2e-07 PS=1.36e-06 NRD=0.385714 NRS=0.942857 SA=6.5e-07
+ SB=3.3e-07 SCA=6.69093 SCB=0.00693307 SCC=0.000224189
mXI6_XI17_MM1 XI6_NET9 XI6_NET020 XI6_NET17 VSS! nch L=6e-08 W=3e-07 AD=5.4e-14
+ AS=5.25e-14 PD=9.6e-07 PS=9.5e-07 NRD=0.6 NRS=0.583333 SA=1.8e-07 SB=1.75e-07
+ SCA=9.84181 SCB=0.0114146 SCC=0.000646339
mXI6_XI14_MM1 XI6_NET7 XI6_NET028 XI6_NET9 VSS! nch L=6e-08 W=3e-07 AD=5.4e-14
+ AS=5.25e-14 PD=9.6e-07 PS=9.5e-07 NRD=0.6 NRS=0.583333 SA=1.8e-07 SB=1.75e-07
+ SCA=9.84181 SCB=0.0114146 SCC=0.000646339
mXI6_XI16_MM1 XI6_NET13 XI6_NET020 XI6_NET016 VSS! nch L=6e-08 W=3e-07
+ AD=5.4e-14 AS=5.25e-14 PD=9.6e-07 PS=9.5e-07 NRD=0.6 NRS=0.583333 SA=1.8e-07
+ SB=1.75e-07 SCA=9.84181 SCB=0.0114146 SCC=0.000646339
mXI6_XI15_MM1 XI6_NET016 XI6_NET028 XI6_NET019 VSS! nch L=6e-08 W=3e-07
+ AD=5.4e-14 AS=5.25e-14 PD=9.6e-07 PS=9.5e-07 NRD=0.6 NRS=0.583333 SA=1.8e-07
+ SB=1.75e-07 SCA=9.84181 SCB=0.0114146 SCC=0.000646339
mXI7_XI12_MNMOS1 XI7_XI12_NET14 XI7_NET13 VSS! VSS! nch L=6e-08 W=3.5e-07
+ AD=4.725e-14 AS=1.1025e-13 PD=6.2e-07 PS=1.33e-06 NRD=0.385714 NRS=0.9
+ SA=5.9e-07 SB=3.15e-07 SCA=6.69093 SCB=0.00693307 SCC=0.000224189
mXI7_XI12_MNMOS0 XI7_NET17 XI7_NET024 XI7_XI12_NET14 VSS! nch L=6e-08 W=3.5e-07
+ AD=9.1e-14 AS=4.725e-14 PD=1.22e-06 PS=6.2e-07 NRD=0.742857 NRS=0.385714
+ SA=2.6e-07 SB=6.45e-07 SCA=6.69093 SCB=0.00693307 SCC=0.000224189
mXI7_XI9_XI0_MM1 XI7_NET024 RST VSS! VSS! nch L=6e-08 W=3e-07 AD=5.25e-14
+ AS=5.25e-14 PD=9.5e-07 PS=9.5e-07 NRD=0.583333 NRS=0.583333 SA=1.75e-07
+ SB=1.75e-07 SCA=6.25368 SCB=0.00628865 SCC=0.000156788
mXI7_XI0_MM1 XI7_NET7 STATE<9> VSS! VSS! nch L=6e-08 W=3e-07 AD=5.25e-14
+ AS=5.25e-14 PD=9.5e-07 PS=9.5e-07 NRD=0.583333 NRS=0.583333 SA=1.75e-07
+ SB=1.75e-07 SCA=6.25368 SCB=0.00628865 SCC=0.000156788
mXI7_XI1_MM1 XI7_NET13 XI7_NET9 VSS! VSS! nch L=6e-08 W=3e-07 AD=5.25e-14
+ AS=5.25e-14 PD=9.5e-07 PS=9.5e-07 NRD=0.583333 NRS=0.583333 SA=1.75e-07
+ SB=1.75e-07 SCA=6.25368 SCB=0.00628865 SCC=0.000156788
mXI7_XI3_MM1 XI7_NET033 XI7_NET016 VSS! VSS! nch L=6e-08 W=3e-07 AD=5.25e-14
+ AS=5.25e-14 PD=9.5e-07 PS=9.5e-07 NRD=0.583333 NRS=0.583333 SA=1.75e-07
+ SB=1.75e-07 SCA=6.25368 SCB=0.00628865 SCC=0.000156788
mXI7_XI13_MM1 STATE<8> XI7_NET033 VSS! VSS! nch L=6e-08 W=3e-07 AD=5.25e-14
+ AS=5.25e-14 PD=9.5e-07 PS=9.5e-07 NRD=0.583333 NRS=0.583333 SA=1.75e-07
+ SB=1.75e-07 SCA=6.25368 SCB=0.00628865 SCC=0.000156788
mXI7_XI8_XI0_MM1 XI7_NET028 CLK VSS! VSS! nch L=6e-08 W=3e-07 AD=5.25e-14
+ AS=5.25e-14 PD=9.5e-07 PS=9.5e-07 NRD=0.583333 NRS=0.583333 SA=1.75e-07