* File: RF.pex.netlist
* Created: Mon Dec 11 05:29:24 2023
* Program "Calibre xRC"
* Version "v2010.4_26.16"
* 
.subckt RF CLK RD_DATA_0<0> WR_DATA<0> RD_DATA_1<0> RD_DATA_0<1>
+ WR_DATA<1> RD_DATA_1<1> RD_DATA_0<2> WR_DATA<2> RD_DATA_1<2> RD_DATA_0<3>
+ WR_DATA<3> RD_DATA_1<3> RD_DATA_0<4> WR_DATA<4> RD_DATA_1<4> RD_DATA_0<5>
+ WR_DATA<5> RD_DATA_1<5> RD_DATA_0<6> WR_DATA<6> RD_DATA_1<6> RD_DATA_0<7>
+ WR_DATA<7> RD_DATA_1<7> RD_DATA_0<8> WR_DATA<8> RD_DATA_1<8> RD_DATA_0<9>
+ WR_DATA<9> RD_DATA_1<9> RD_DATA_0<10> WR_DATA<10> RD_DATA_1<10> RD_DATA_0<11>
+ WR_DATA<11> RD_DATA_1<11> RD_DATA_0<12> WR_DATA<12> RD_DATA_1<12> RD_DATA_0<13>
+ WR_DATA<13> RD_DATA_1<13> RD_DATA_0<14> WR_DATA<14> RD_DATA_1<14> RD_DATA_0<15>
+ WR_DATA<15> RD_DATA_1<15> RD_ADDR_1<1> RD_ADDR_1<0> RD_ADDR_1<3> RD_ADDR_1<2>
+ RD_ADDR_0<1> RD_ADDR_0<0> RD_ADDR_0<3> RD_ADDR_0<2> WR_ADDR<1> WR_ADDR<0> WR_EN
+ WR_ADDR<3> WR_ADDR<2>
* 
mXI2_X2x4_4_Xnand3_MMU1-M_u4 XI2_X2X4_4_XNAND3_NET1 RD_ADDR_1<3> VSS! VSS! nch
+ L=6e-08 W=1.95e-07 AD=1.95e-14 AS=3.6075e-14 PD=3.95e-07 PS=7.6e-07
+ NRD=0.512821 NRS=0.948718 SA=1.85e-07 SB=4.45e-07 SCA=5.45941 SCB=0.00458762
+ SCC=5.84923e-05
mXI2_X2x4_4_Xnand3_MMU1-M_u3 XI2_X2X4_4_NET26 RD_ADDR_1<2>
+ XI2_X2X4_4_XNAND3_NET1 VSS! nch L=6e-08 W=1.95e-07 AD=3.6075e-14 AS=1.95e-14
+ PD=7.6e-07 PS=3.95e-07 NRD=0.948718 NRS=0.512821 SA=4.45e-07 SB=1.85e-07
+ SCA=5.45941 SCB=0.00458762 SCC=5.84923e-05
mXI2_X2x4_4_Xen0_MM_u2-M_u3 XI2_X2X4_4_XEN0_NET9 XI2_X2X4_4_NET030
+ XI2_X2X4_4_XEN0_NET29 VSS! nch L=6e-08 W=3.9e-07 AD=7.215e-14 AS=2.73e-14
+ PD=1.15e-06 PS=5.3e-07 NRD=0.474359 NRS=0.179487 SA=1.85e-07 SB=9.95e-07
+ SCA=12.034 SCB=0.0127828 SCC=0.00109616
mXI2_X2x4_4_Xen0_MM_u2-M_u4 XI2_X2X4_4_XEN0_NET29 XI2_NET14 VSS! VSS! nch
+ L=6e-08 W=3.9e-07 AD=2.73e-14 AS=7.2e-14 PD=5.3e-07 PS=8.7e-07 NRD=0.179487
+ NRS=0.473373 SA=3.85e-07 SB=7.95e-07 SCA=12.034 SCB=0.0127828 SCC=0.00109616
mXI2_X2x4_4_Xen0_MM_u3_1-M_u2 NET168 XI2_X2X4_4_XEN0_NET9 VSS! VSS! nch L=6e-08
+ W=3.9e-07 AD=3.9e-14 AS=7.2e-14 PD=5.9e-07 PS=8.7e-07 NRD=0.25641 NRS=0.473373
+ SA=7.45e-07 SB=4.35e-07 SCA=12.034 SCB=0.0127828 SCC=0.00109616
mXI2_X2x4_4_Xen0_MM_u3_0-M_u2 NET168 XI2_X2X4_4_XEN0_NET9 VSS! VSS! nch L=6e-08
+ W=3.9e-07 AD=3.9e-14 AS=6.825e-14 PD=5.9e-07 PS=1.13e-06 NRD=0.25641
+ NRS=0.448718 SA=1.005e-06 SB=1.75e-07 SCA=12.034 SCB=0.0127828 SCC=0.00109616
mXI2_X2x4_4_Xen1_MM_u2-M_u3 XI2_X2X4_4_XEN1_NET9 XI2_X2X4_4_NET029
+ XI2_X2X4_4_XEN1_NET29 VSS! nch L=6e-08 W=3.9e-07 AD=7.215e-14 AS=2.73e-14
+ PD=1.15e-06 PS=5.3e-07 NRD=0.474359 NRS=0.179487 SA=1.85e-07 SB=9.95e-07
+ SCA=12.034 SCB=0.0127828 SCC=0.00109616
mXI2_X2x4_4_Xen1_MM_u2-M_u4 XI2_X2X4_4_XEN1_NET29 XI2_NET14 VSS! VSS! nch
+ L=6e-08 W=3.9e-07 AD=2.73e-14 AS=7.2e-14 PD=5.3e-07 PS=8.7e-07 NRD=0.179487
+ NRS=0.473373 SA=3.85e-07 SB=7.95e-07 SCA=12.034 SCB=0.0127828 SCC=0.00109616
mXI2_X2x4_4_Xen1_MM_u3_1-M_u2 NET163 XI2_X2X4_4_XEN1_NET9 VSS! VSS! nch L=6e-08
+ W=3.9e-07 AD=3.9e-14 AS=7.2e-14 PD=5.9e-07 PS=8.7e-07 NRD=0.25641 NRS=0.473373
+ SA=7.45e-07 SB=4.35e-07 SCA=12.034 SCB=0.0127828 SCC=0.00109616
mXI2_X2x4_4_Xen1_MM_u3_0-M_u2 NET163 XI2_X2X4_4_XEN1_NET9 VSS! VSS! nch L=6e-08
+ W=3.9e-07 AD=3.9e-14 AS=6.825e-14 PD=5.9e-07 PS=1.13e-06 NRD=0.25641
+ NRS=0.448718 SA=1.005e-06 SB=1.75e-07 SCA=12.034 SCB=0.0127828 SCC=0.00109616
mXI2_X2x4_4_Xen2_MM_u2-M_u3 XI2_X2X4_4_XEN2_NET9 XI2_X2X4_4_NET028
+ XI2_X2X4_4_XEN2_NET29 VSS! nch L=6e-08 W=3.9e-07 AD=7.215e-14 AS=2.73e-14
+ PD=1.15e-06 PS=5.3e-07 NRD=0.474359 NRS=0.179487 SA=1.85e-07 SB=9.95e-07
+ SCA=12.034 SCB=0.0127828 SCC=0.00109616
mXI2_X2x4_4_Xen2_MM_u2-M_u4 XI2_X2X4_4_XEN2_NET29 XI2_NET14 VSS! VSS! nch
+ L=6e-08 W=3.9e-07 AD=2.73e-14 AS=7.2e-14 PD=5.3e-07 PS=8.7e-07 NRD=0.179487
+ NRS=0.473373 SA=3.85e-07 SB=7.95e-07 SCA=12.034 SCB=0.0127828 SCC=0.00109616
mXI2_X2x4_4_Xen2_MM_u3_1-M_u2 NET160 XI2_X2X4_4_XEN2_NET9 VSS! VSS! nch L=6e-08
+ W=3.9e-07 AD=3.9e-14 AS=7.2e-14 PD=5.9e-07 PS=8.7e-07 NRD=0.25641 NRS=0.473373
+ SA=7.45e-07 SB=4.35e-07 SCA=12.034 SCB=0.0127828 SCC=0.00109616
mXI2_X2x4_4_Xen2_MM_u3_0-M_u2 NET160 XI2_X2X4_4_XEN2_NET9 VSS! VSS! nch L=6e-08
+ W=3.9e-07 AD=3.9e-14 AS=6.825e-14 PD=5.9e-07 PS=1.13e-06 NRD=0.25641
+ NRS=0.448718 SA=1.005e-06 SB=1.75e-07 SCA=12.034 SCB=0.0127828 SCC=0.00109616
mXI2_X2x4_4_Xen3_MM_u2-M_u3 XI2_X2X4_4_XEN3_NET9 XI2_X2X4_4_NET027
+ XI2_X2X4_4_XEN3_NET29 VSS! nch L=6e-08 W=3.9e-07 AD=7.215e-14 AS=2.73e-14
+ PD=1.15e-06 PS=5.3e-07 NRD=0.474359 NRS=0.179487 SA=1.85e-07 SB=9.95e-07
+ SCA=12.034 SCB=0.0127828 SCC=0.00109616
mXI2_X2x4_4_Xen3_MM_u2-M_u4 XI2_X2X4_4_XEN3_NET29 XI2_NET14 VSS! VSS! nch
+ L=6e-08 W=3.9e-07 AD=2.73e-14 AS=7.2e-14 PD=5.3e-07 PS=8.7e-07 NRD=0.179487
+ NRS=0.473373 SA=3.85e-07 SB=7.95e-07 SCA=12.034 SCB=0.0127828 SCC=0.00109616
mXI2_X2x4_4_Xen3_MM_u3_1-M_u2 NET157 XI2_X2X4_4_XEN3_NET9 VSS! VSS! nch L=6e-08
+ W=3.9e-07 AD=3.9e-14 AS=7.2e-14 PD=5.9e-07 PS=8.7e-07 NRD=0.25641 NRS=0.473373
+ SA=7.45e-07 SB=4.35e-07 SCA=12.034 SCB=0.0127828 SCC=0.00109616
mXI2_X2x4_4_Xen3_MM_u3_0-M_u2 NET157 XI2_X2X4_4_XEN3_NET9 VSS! VSS! nch L=6e-08
+ W=3.9e-07 AD=3.9e-14 AS=6.825e-14 PD=5.9e-07 PS=1.13e-06 NRD=0.25641
+ NRS=0.448718 SA=1.005e-06 SB=1.75e-07 SCA=12.034 SCB=0.0127828 SCC=0.00109616
mXI2_X2x4_4_Xinv_1_MM_u2 XI2_X2X4_4_NET27 RD_ADDR_1<3> VSS! VSS! nch L=6e-08
+ W=1.5e-07 AD=2.775e-14 AS=3.96e-14 PD=6.7e-07 PS=9.8e-07 NRD=1.23333 NRS=1.76
+ SA=1.5e-07 SB=1.85e-07 SCA=5.51876 SCB=0.00469289 SCC=5.60826e-05
mXI2_X2x4_4_Xinv_0_MM_u2 XI2_X2X4_4_NET28 RD_ADDR_1<2> VSS! VSS! nch L=6e-08
+ W=1.5e-07 AD=2.775e-14 AS=3.96e-14 PD=6.7e-07 PS=9.8e-07 NRD=1.23333 NRS=1.76
+ SA=1.5e-07 SB=1.85e-07 SCA=5.51876 SCB=0.00469289 SCC=5.60826e-05
mXI2_X2x4_4_Xinv_3_MM_u2 XI2_X2X4_4_NET027 XI2_X2X4_4_NET26 VSS! VSS! nch
+ L=6e-08 W=1.5e-07 AD=2.775e-14 AS=3.96e-14 PD=6.7e-07 PS=9.8e-07 NRD=1.23333
+ NRS=1.76 SA=1.5e-07 SB=1.85e-07 SCA=5.51876 SCB=0.00469289 SCC=5.60826e-05
mXI2_X2x4_4_Xnor0_MMI2-M_u3 XI2_X2X4_4_NET030 RD_ADDR_1<2> VSS! VSS! nch
+ L=6e-08 W=3.9e-07 AD=3.9e-14 AS=6.63e-14 PD=5.9e-07 PS=1.12e-06 NRD=0.25641
+ NRS=0.435897 SA=1.7e-07 SB=4.3e-07 SCA=12.034 SCB=0.0127828 SCC=0.00109616
mXI2_X2x4_4_Xnor0_MMI2-M_u4 XI2_X2X4_4_NET030 RD_ADDR_1<3> VSS! VSS! nch
+ L=6e-08 W=3.9e-07 AD=3.9e-14 AS=6.63e-14 PD=5.9e-07 PS=1.12e-06 NRD=0.25641
+ NRS=0.435897 SA=4.3e-07 SB=1.7e-07 SCA=12.034 SCB=0.0127828 SCC=0.00109616
mXI2_X2x4_4_Xnor1_MMI2-M_u3 XI2_X2X4_4_NET029 RD_ADDR_1<2> VSS! VSS! nch
+ L=6e-08 W=3.9e-07 AD=3.9e-14 AS=6.63e-14 PD=5.9e-07 PS=1.12e-06 NRD=0.25641
+ NRS=0.435897 SA=1.7e-07 SB=4.3e-07 SCA=12.034 SCB=0.0127828 SCC=0.00109616
mXI2_X2x4_4_Xnor1_MMI2-M_u4 XI2_X2X4_4_NET029 XI2_X2X4_4_NET27 VSS! VSS! nch
+ L=6e-08 W=3.9e-07 AD=3.9e-14 AS=6.63e-14 PD=5.9e-07 PS=1.12e-06 NRD=0.25641
+ NRS=0.435897 SA=4.3e-07 SB=1.7e-07 SCA=12.034 SCB=0.0127828 SCC=0.00109616
mXI2_X2x4_4_Xnor2_MMI2-M_u3 XI2_X2X4_4_NET028 XI2_X2X4_4_NET28 VSS! VSS! nch
+ L=6e-08 W=3.9e-07 AD=3.9e-14 AS=6.63e-14 PD=5.9e-07 PS=1.12e-06 NRD=0.25641
+ NRS=0.435897 SA=1.7e-07 SB=4.3e-07 SCA=12.034 SCB=0.0127828 SCC=0.00109616
mXI2_X2x4_4_Xnor2_MMI2-M_u4 XI2_X2X4_4_NET028 RD_ADDR_1<3> VSS! VSS! nch
+ L=6e-08 W=3.9e-07 AD=3.9e-14 AS=6.63e-14 PD=5.9e-07 PS=1.12e-06 NRD=0.25641
+ NRS=0.435897 SA=4.3e-07 SB=1.7e-07 SCA=12.034 SCB=0.0127828 SCC=0.00109616
mXI2_X2x4_0_Xnand3_MMU1-M_u4 XI2_X2X4_0_XNAND3_NET1 RD_ADDR_1<1> VSS! VSS! nch
+ L=6e-08 W=1.95e-07 AD=1.95e-14 AS=3.6075e-14 PD=3.95e-07 PS=7.6e-07
+ NRD=0.512821 NRS=0.948718 SA=1.85e-07 SB=4.45e-07 SCA=9.20311 SCB=0.00760176
+ SCC=7.66623e-05
mXI2_X2x4_0_Xnand3_MMU1-M_u3 XI2_X2X4_0_NET26 RD_ADDR_1<0>
+ XI2_X2X4_0_XNAND3_NET1 VSS! nch L=6e-08 W=1.95e-07 AD=3.6075e-14 AS=1.95e-14
+ PD=7.6e-07 PS=3.95e-07 NRD=0.948718 NRS=0.512821 SA=4.45e-07 SB=1.85e-07
+ SCA=7.08732 SCB=0.00492517 SCC=5.86437e-05
mXI2_X2x4_0_Xen0_MM_u2-M_u3 XI2_X2X4_0_XEN0_NET9 XI2_X2X4_0_NET030
+ XI2_X2X4_0_XEN0_NET29 VSS! nch L=6e-08 W=3.9e-07 AD=7.215e-14 AS=2.73e-14
+ PD=1.15e-06 PS=5.3e-07 NRD=0.474359 NRS=0.179487 SA=1.85e-07 SB=9.95e-07
+ SCA=12.2575 SCB=0.0127828 SCC=0.00109616
mXI2_X2x4_0_Xen0_MM_u2-M_u4 XI2_X2X4_0_XEN0_NET29 VDD! VSS! VSS! nch L=6e-08
+ W=3.9e-07 AD=2.73e-14 AS=7.2e-14 PD=5.3e-07 PS=8.7e-07 NRD=0.179487
+ NRS=0.473373 SA=3.85e-07 SB=7.95e-07 SCA=12.2108 SCB=0.0127828 SCC=0.00109616
mXI2_X2x4_0_Xen0_MM_u3_1-M_u2 XI2_NET14 XI2_X2X4_0_XEN0_NET9 VSS! VSS! nch
+ L=6e-08 W=3.9e-07 AD=3.9e-14 AS=7.2e-14 PD=5.9e-07 PS=8.7e-07 NRD=0.25641
+ NRS=0.473373 SA=7.45e-07 SB=4.35e-07 SCA=12.1532 SCB=0.0127828 SCC=0.00109616
mXI2_X2x4_0_Xen0_MM_u3_0-M_u2 XI2_NET14 XI2_X2X4_0_XEN0_NET9 VSS! VSS! nch
+ L=6e-08 W=3.9e-07 AD=3.9e-14 AS=6.825e-14 PD=5.9e-07 PS=1.13e-06 NRD=0.25641
+ NRS=0.448718 SA=1.005e-06 SB=1.75e-07 SCA=12.1248 SCB=0.0127828 SCC=0.00109616
mXI2_X2x4_0_Xen1_MM_u2-M_u3 XI2_X2X4_0_XEN1_NET9 XI2_X2X4_0_NET029
+ XI2_X2X4_0_XEN1_NET29 VSS! nch L=6e-08 W=3.9e-07 AD=7.215e-14 AS=2.73e-14
+ PD=1.15e-06 PS=5.3e-07 NRD=0.474359 NRS=0.179487 SA=1.85e-07 SB=9.95e-07
+ SCA=12.2575 SCB=0.0127828 SCC=0.00109616
mXI2_X2x4_0_Xen1_MM_u2-M_u4 XI2_X2X4_0_XEN1_NET29 VDD! VSS! VSS! nch L=6e-08
+ W=3.9e-07 AD=2.73e-14 AS=7.2e-14 PD=5.3e-07 PS=8.7e-07 NRD=0.179487
+ NRS=0.473373 SA=3.85e-07 SB=7.95e-07 SCA=12.2108 SCB=0.0127828 SCC=0.00109616
mXI2_X2x4_0_Xen1_MM_u3_1-M_u2 XI2_NET15 XI2_X2X4_0_XEN1_NET9 VSS! VSS! nch
+ L=6e-08 W=3.9e-07 AD=3.9e-14 AS=7.2e-14 PD=5.9e-07 PS=8.7e-07 NRD=0.25641
+ NRS=0.473373 SA=7.45e-07 SB=4.35e-07 SCA=12.1532 SCB=0.0127828 SCC=0.00109616
mXI2_X2x4_0_Xen1_MM_u3_0-M_u2 XI2_NET15 XI2_X2X4_0_XEN1_NET9 VSS! VSS! nch
+ L=6e-08 W=3.9e-07 AD=3.9e-14 AS=6.825e-14 PD=5.9e-07 PS=1.13e-06 NRD=0.25641
+ NRS=0.448718 SA=1.005e-06 SB=1.75e-07 SCA=12.1248 SCB=0.0127828 SCC=0.00109616
mXI2_X2x4_0_Xen2_MM_u2-M_u3 XI2_X2X4_0_XEN2_NET9 XI2_X2X4_0_NET028
+ XI2_X2X4_0_XEN2_NET29 VSS! nch L=6e-08 W=3.9e-07 AD=7.215e-14 AS=2.73e-14
+ PD=1.15e-06 PS=5.3e-07 NRD=0.474359 NRS=0.179487 SA=1.85e-07 SB=9.95e-07
+ SCA=12.2575 SCB=0.0127828 SCC=0.00109616
mXI2_X2x4_0_Xen2_MM_u2-M_u4 XI2_X2X4_0_XEN2_NET29 VDD! VSS! VSS! nch L=6e-08
+ W=3.9e-07 AD=2.73e-14 AS=7.2e-14 PD=5.3e-07 PS=8.7e-07 NRD=0.179487
+ NRS=0.473373 SA=3.85e-07 SB=7.95e-07 SCA=12.2108 SCB=0.0127828 SCC=0.00109616
mXI2_X2x4_0_Xen2_MM_u3_1-M_u2 XI2_NET17 XI2_X2X4_0_XEN2_NET9 VSS! VSS! nch
+ L=6e-08 W=3.9e-07 AD=3.9e-14 AS=7.2e-14 PD=5.9e-07 PS=8.7e-07 NRD=0.25641
+ NRS=0.473373 SA=7.45e-07 SB=4.35e-07 SCA=12.1532 SCB=0.0127828 SCC=0.00109616
mXI2_X2x4_0_Xen2_MM_u3_0-M_u2 XI2_NET17 XI2_X2X4_0_XEN2_NET9 VSS! VSS! nch
+ L=6e-08 W=3.9e-07 AD=3.9e-14 AS=6.825e-14 PD=5.9e-07 PS=1.13e-06 NRD=0.25641
+ NRS=0.448718 SA=1.005e-06 SB=1.75e-07 SCA=12.1248 SCB=0.0127828 SCC=0.00109616
mXI2_X2x4_0_Xen3_MM_u2-M_u3 XI2_X2X4_0_XEN3_NET9 XI2_X2X4_0_NET027
+ XI2_X2X4_0_XEN3_NET29 VSS! nch L=6e-08 W=3.9e-07 AD=7.215e-14 AS=2.73e-14
+ PD=1.15e-06 PS=5.3e-07 NRD=0.474359 NRS=0.179487 SA=1.85e-07 SB=9.95e-07
+ SCA=12.2575 SCB=0.0127828 SCC=0.00109616
mXI2_X2x4_0_Xen3_MM_u2-M_u4 XI2_X2X4_0_XEN3_NET29 VDD! VSS! VSS! nch L=6e-08
+ W=3.9e-07 AD=2.73e-14 AS=7.2e-14 PD=5.3e-07 PS=8.7e-07 NRD=0.179487
+ NRS=0.473373 SA=3.85e-07 SB=7.95e-07 SCA=12.2108 SCB=0.0127828 SCC=0.00109616
mXI2_X2x4_0_Xen3_MM_u3_1-M_u2 XI2_NET16 XI2_X2X4_0_XEN3_NET9 VSS! VSS! nch
+ L=6e-08 W=3.9e-07 AD=3.9e-14 AS=7.2e-14 PD=5.9e-07 PS=8.7e-07 NRD=0.25641
+ NRS=0.473373 SA=7.45e-07 SB=4.35e-07 SCA=12.1532 SCB=0.0127828 SCC=0.00109616
mXI2_X2x4_0_Xen3_MM_u3_0-M_u2 XI2_NET16 XI2_X2X4_0_XEN3_NET9 VSS! VSS! nch
+ L=6e-08 W=3.9e-07 AD=3.9e-14 AS=6.825e-14 PD=5.9e-07 PS=1.13e-06 NRD=0.25641
+ NRS=0.448718 SA=1.005e-06 SB=1.75e-07 SCA=12.1248 SCB=0.0127828 SCC=0.00109616
mXI2_X2x4_0_Xinv_1_MM_u2 XI2_X2X4_0_NET27 RD_ADDR_1<1> VSS! VSS! nch L=6e-08
+ W=1.5e-07 AD=2.775e-14 AS=3.96e-14 PD=6.7e-07 PS=9.8e-07 NRD=1.23333 NRS=1.76
+ SA=1.5e-07 SB=1.85e-07 SCA=9.26246 SCB=0.00770703 SCC=7.42526e-05
mXI2_X2x4_0_Xinv_0_MM_u2 XI2_X2X4_0_NET28 RD_ADDR_1<0> VSS! VSS! nch L=6e-08
+ W=1.5e-07 AD=2.775e-14 AS=3.96e-14 PD=6.7e-07 PS=9.8e-07 NRD=1.23333 NRS=1.76
+ SA=1.5e-07 SB=1.85e-07 SCA=9.26246 SCB=0.00770703 SCC=7.42526e-05
mXI2_X2x4_0_Xinv_3_MM_u2 XI2_X2X4_0_NET027 XI2_X2X4_0_NET26 VSS! VSS! nch
+ L=6e-08 W=1.5e-07 AD=2.775e-14 AS=3.96e-14 PD=6.7e-07 PS=9.8e-07 NRD=1.23333
+ NRS=1.76 SA=1.5e-07 SB=1.85e-07 SCA=6.05783 SCB=0.00469548 SCC=5.60826e-05
mXI2_X2x4_0_Xnor0_MMI2-M_u3 XI2_X2X4_0_NET030 RD_ADDR_1<0> VSS! VSS! nch
+ L=6e-08 W=3.9e-07 AD=3.9e-14 AS=6.63e-14 PD=5.9e-07 PS=1.12e-06 NRD=0.25641
+ NRS=0.435897 SA=1.7e-07 SB=4.3e-07 SCA=12.7994 SCB=0.012799 SCC=0.00109616
mXI2_X2x4_0_Xnor0_MMI2-M_u4 XI2_X2X4_0_NET030 RD_ADDR_1<1> VSS! VSS! nch
+ L=6e-08 W=3.9e-07 AD=3.9e-14 AS=6.63e-14 PD=5.9e-07 PS=1.12e-06 NRD=0.25641
+ NRS=0.435897 SA=4.3e-07 SB=1.7e-07 SCA=12.5236 SCB=0.0127843 SCC=0.00109616
mXI2_X2x4_0_Xnor1_MMI2-M_u3 XI2_X2X4_0_NET029 RD_ADDR_1<0> VSS! VSS! nch
+ L=6e-08 W=3.9e-07 AD=3.9e-14 AS=6.63e-14 PD=5.9e-07 PS=1.12e-06 NRD=0.25641
+ NRS=0.435897 SA=1.7e-07 SB=4.3e-07 SCA=12.7994 SCB=0.012799 SCC=0.00109616
mXI2_X2x4_0_Xnor1_MMI2-M_u4 XI2_X2X4_0_NET029 XI2_X2X4_0_NET27 VSS! VSS! nch
+ L=6e-08 W=3.9e-07 AD=3.9e-14 AS=6.63e-14 PD=5.9e-07 PS=1.12e-06 NRD=0.25641
+ NRS=0.435897 SA=4.3e-07 SB=1.7e-07 SCA=12.5236 SCB=0.0127843 SCC=0.00109616
mXI2_X2x4_0_Xnor2_MMI2-M_u3 XI2_X2X4_0_NET028 XI2_X2X4_0_NET28 VSS! VSS! nch
+ L=6e-08 W=3.9e-07 AD=3.9e-14 AS=6.63e-14 PD=5.9e-07 PS=1.12e-06 NRD=0.25641
+ NRS=0.435897 SA=1.7e-07 SB=4.3e-07 SCA=12.7994 SCB=0.012799 SCC=0.00109616
mXI2_X2x4_0_Xnor2_MMI2-M_u4 XI2_X2X4_0_NET028 RD_ADDR_1<1> VSS! VSS! nch
+ L=6e-08 W=3.9e-07 AD=3.9e-14 AS=6.63e-14 PD=5.9e-07 PS=1.12e-06 NRD=0.25641
+ NRS=0.435897 SA=4.3e-07 SB=1.7e-07 SCA=12.5236 SCB=0.0127843 SCC=0.00109616
mXI2_X2x4_2_Xnand3_MMU1-M_u4 XI2_X2X4_2_XNAND3_NET1 RD_ADDR_1<3> VSS! VSS! nch
+ L=6e-08 W=1.95e-07 AD=1.95e-14 AS=3.6075e-14 PD=3.95e-07 PS=7.6e-07
+ NRD=0.512821 NRS=0.948718 SA=1.85e-07 SB=4.45e-07 SCA=5.51089 SCB=0.00458762
+ SCC=5.84923e-05
mXI2_X2x4_2_Xnand3_MMU1-M_u3 XI2_X2X4_2_NET26 RD_ADDR_1<2>
+ XI2_X2X4_2_XNAND3_NET1 VSS! nch L=6e-08 W=1.95e-07 AD=3.6075e-14 AS=1.95e-14
+ PD=7.6e-07 PS=3.95e-07 NRD=0.948718 NRS=0.512821 SA=4.45e-07 SB=1.85e-07
+ SCA=5.49814 SCB=0.00458762 SCC=5.84923e-05
mXI2_X2x4_2_Xen0_MM_u2-M_u3 XI2_X2X4_2_XEN0_NET9 XI2_X2X4_2_NET030
+ XI2_X2X4_2_XEN0_NET29 VSS! nch L=6e-08 W=3.9e-07 AD=7.215e-14 AS=2.73e-14
+ PD=1.15e-06 PS=5.3e-07 NRD=0.474359 NRS=0.179487 SA=1.85e-07 SB=9.95e-07
+ SCA=12.0388 SCB=0.0127828 SCC=0.00109616
mXI2_X2x4_2_Xen0_MM_u2-M_u4 XI2_X2X4_2_XEN0_NET29 XI2_NET16 VSS! VSS! nch
+ L=6e-08 W=3.9e-07 AD=2.73e-14 AS=7.2e-14 PD=5.3e-07 PS=8.7e-07 NRD=0.179487
+ NRS=0.473373 SA=3.85e-07 SB=7.95e-07 SCA=12.0353 SCB=0.0127828 SCC=0.00109616
mXI2_X2x4_2_Xen0_MM_u3_1-M_u2 NET130 XI2_X2X4_2_XEN0_NET9 VSS! VSS! nch L=6e-08
+ W=3.9e-07 AD=3.9e-14 AS=7.2e-14 PD=5.9e-07 PS=8.7e-07 NRD=0.25641 NRS=0.473373
+ SA=7.45e-07 SB=4.35e-07 SCA=12.034 SCB=0.0127828 SCC=0.00109616
mXI2_X2x4_2_Xen0_MM_u3_0-M_u2 NET130 XI2_X2X4_2_XEN0_NET9 VSS! VSS! nch L=6e-08
+ W=3.9e-07 AD=3.9e-14 AS=6.825e-14 PD=5.9e-07 PS=1.13e-06 NRD=0.25641
+ NRS=0.448718 SA=1.005e-06 SB=1.75e-07 SCA=12.034 SCB=0.0127828 SCC=0.00109616
mXI2_X2x4_2_Xen1_MM_u2-M_u3 XI2_X2X4_2_XEN1_NET9 XI2_X2X4_2_NET029
+ XI2_X2X4_2_XEN1_NET29 VSS! nch L=6e-08 W=3.9e-07 AD=7.215e-14 AS=2.73e-14
+ PD=1.15e-06 PS=5.3e-07 NRD=0.474359 NRS=0.179487 SA=1.85e-07 SB=9.95e-07
+ SCA=12.0388 SCB=0.0127828 SCC=0.00109616
mXI2_X2x4_2_Xen1_MM_u2-M_u4 XI2_X2X4_2_XEN1_NET29 XI2_NET16 VSS! VSS! nch
+ L=6e-08 W=3.9e-07 AD=2.73e-14 AS=7.2e-14 PD=5.3e-07 PS=8.7e-07 NRD=0.179487
+ NRS=0.473373 SA=3.85e-07 SB=7.95e-07 SCA=12.0353 SCB=0.0127828 SCC=0.00109616
mXI2_X2x4_2_Xen1_MM_u3_1-M_u2 XI2_NET28 XI2_X2X4_2_XEN1_NET9 VSS! VSS! nch
+ L=6e-08 W=3.9e-07 AD=3.9e-14 AS=7.2e-14 PD=5.9e-07 PS=8.7e-07 NRD=0.25641
+ NRS=0.473373 SA=7.45e-07 SB=4.35e-07 SCA=12.034 SCB=0.0127828 SCC=0.00109616
mXI2_X2x4_2_Xen1_MM_u3_0-M_u2 XI2_NET28 XI2_X2X4_2_XEN1_NET9 VSS! VSS! nch
+ L=6e-08 W=3.9e-07 AD=3.9e-14 AS=6.825e-14 PD=5.9e-07 PS=1.13e-06 NRD=0.25641
+ NRS=0.448718 SA=1.005e-06 SB=1.75e-07 SCA=12.034 SCB=0.0127828 SCC=0.00109616
mXI2_X2x4_2_Xen2_MM_u2-M_u3 XI2_X2X4_2_XEN2_NET9 XI2_X2X4_2_NET028
+ XI2_X2X4_2_XEN2_NET29 VSS! nch L=6e-08 W=3.9e-07 AD=7.215e-14 AS=2.73e-14
+ PD=1.15e-06 PS=5.3e-07 NRD=0.474359 NRS=0.179487 SA=1.85e-07 SB=9.95e-07
+ SCA=12.0388 SCB=0.0127828 SCC=0.00109616
mXI2_X2x4_2_Xen2_MM_u2-M_u4 XI2_X2X4_2_XEN2_NET29 XI2_NET16 VSS! VSS! nch
+ L=6e-08 W=3.9e-07 AD=2.73e-14 AS=7.2e-14 PD=5.3e-07 PS=8.7e-07 NRD=0.179487
+ NRS=0.473373 SA=3.85e-07 SB=7.95e-07 SCA=12.0353 SCB=0.0127828 SCC=0.00109616
mXI2_X2x4_2_Xen2_MM_u3_1-M_u2 XI2_NET27 XI2_X2X4_2_XEN2_NET9 VSS! VSS! nch
+ L=6e-08 W=3.9e-07 AD=3.9e-14 AS=7.2e-14 PD=5.9e-07 PS=8.7e-07 NRD=0.25641
+ NRS=0.473373 SA=7.45e-07 SB=4.35e-07 SCA=12.034 SCB=0.0127828 SCC=0.00109616
mXI2_X2x4_2_Xen2_MM_u3_0-M_u2 XI2_NET27 XI2_X2X4_2_XEN2_NET9 VSS! VSS! nch
+ L=6e-08 W=3.9e-07 AD=3.9e-14 AS=6.825e-14 PD=5.9e-07 PS=1.13e-06 NRD=0.25641
+ NRS=0.448718 SA=1.005e-06 SB=1.75e-07 SCA=12.034 SCB=0.0127828 SCC=0.00109616
mXI2_X2x4_2_Xen3_MM_u2-M_u3 XI2_X2X4_2_XEN3_NET9 XI2_X2X4_2_NET027
+ XI2_X2X4_2_XEN3_NET29 VSS! nch L=6e-08 W=3.9e-07 AD=7.215e-14 AS=2.73e-14
+ PD=1.15e-06 PS=5.3e-07 NRD=0.474359 NRS=0.179487 SA=1.85e-07 SB=9.95e-07
+ SCA=12.0388 SCB=0.0127828 SCC=0.00109616
mXI2_X2x4_2_Xen3_MM_u2-M_u4 XI2_X2X4_2_XEN3_NET29 XI2_NET16 VSS! VSS! nch
+ L=6e-08 W=3.9e-07 AD=2.73e-14 AS=7.2e-14 PD=5.3e-07 PS=8.7e-07 NRD=0.179487
+ NRS=0.473373 SA=3.85e-07 SB=7.95e-07 SCA=12.0353 SCB=0.0127828 SCC=0.00109616
mXI2_X2x4_2_Xen3_MM_u3_1-M_u2 XI2_NET26 XI2_X2X4_2_XEN3_NET9 VSS! VSS! nch
+ L=6e-08 W=3.9e-07 AD=3.9e-14 AS=7.2e-14 PD=5.9e-07 PS=8.7e-07 NRD=0.25641
+ NRS=0.473373 SA=7.45e-07 SB=4.35e-07 SCA=12.034 SCB=0.0127828 SCC=0.00109616
mXI2_X2x4_2_Xen3_MM_u3_0-M_u2 XI2_NET26 XI2_X2X4_2_XEN3_NET9 VSS! VSS! nch
+ L=6e-08 W=3.9e-07 AD=3.9e-14 AS=6.825e-14 PD=5.9e-07 PS=1.13e-06 NRD=0.25641
+ NRS=0.448718 SA=1.005e-06 SB=1.75e-07 SCA=12.034 SCB=0.0127828 SCC=0.00109616
mXI2_X2x4_2_Xinv_1_MM_u2 XI2_X2X4_2_NET27 RD_ADDR_1<3> VSS! VSS! nch L=6e-08
+ W=1.5e-07 AD=2.775e-14 AS=3.96e-14 PD=6.7e-07 PS=9.8e-07 NRD=1.23333 NRS=1.76
+ SA=1.5e-07 SB=1.85e-07 SCA=5.57024 SCB=0.00469289 SCC=5.60826e-05
mXI2_X2x4_2_Xinv_0_MM_u2 XI2_X2X4_2_NET28 RD_ADDR_1<2> VSS! VSS! nch L=6e-08
+ W=1.5e-07 AD=2.775e-14 AS=3.96e-14 PD=6.7e-07 PS=9.8e-07 NRD=1.23333 NRS=1.76
+ SA=1.5e-07 SB=1.85e-07 SCA=5.57024 SCB=0.00469289 SCC=5.60826e-05
mXI2_X2x4_2_Xinv_3_MM_u2 XI2_X2X4_2_NET027 XI2_X2X4_2_NET26 VSS! VSS! nch
+ L=6e-08 W=1.5e-07 AD=2.775e-14 AS=3.96e-14 PD=6.7e-07 PS=9.8e-07 NRD=1.23333
+ NRS=1.76 SA=1.5e-07 SB=1.85e-07 SCA=5.53829 SCB=0.00469289 SCC=5.60826e-05
mXI2_X2x4_2_Xnor0_MMI2-M_u3 XI2_X2X4_2_NET030 RD_ADDR_1<2> VSS! VSS! nch
+ L=6e-08 W=3.9e-07 AD=3.9e-14 AS=6.63e-14 PD=5.9e-07 PS=1.12e-06 NRD=0.25641
+ NRS=0.435897 SA=1.7e-07 SB=4.3e-07 SCA=12.0597 SCB=0.0127828 SCC=0.00109616
mXI2_X2x4_2_Xnor0_MMI2-M_u4 XI2_X2X4_2_NET030 RD_ADDR_1<3> VSS! VSS! nch
+ L=6e-08 W=3.9e-07 AD=3.9e-14 AS=6.63e-14 PD=5.9e-07 PS=1.12e-06 NRD=0.25641
+ NRS=0.435897 SA=4.3e-07 SB=1.7e-07 SCA=12.0518 SCB=0.0127828 SCC=0.00109616
mXI2_X2x4_2_Xnor1_MMI2-M_u3 XI2_X2X4_2_NET029 RD_ADDR_1<2> VSS! VSS! nch
+ L=6e-08 W=3.9e-07 AD=3.9e-14 AS=6.63e-14 PD=5.9e-07 PS=1.12e-06 NRD=0.25641
+ NRS=0.435897 SA=1.7e-07 SB=4.3e-07 SCA=12.0597 SCB=0.0127828 SCC=0.00109616
mXI2_X2x4_2_Xnor1_MMI2-M_u4 XI2_X2X4_2_NET029 XI2_X2X4_2_NET27 VSS! VSS! nch
+ L=6e-08 W=3.9e-07 AD=3.9e-14 AS=6.63e-14 PD=5.9e-07 PS=1.12e-06 NRD=0.25641
+ NRS=0.435897 SA=4.3e-07 SB=1.7e-07 SCA=12.0518 SCB=0.0127828 SCC=0.00109616
mXI2_X2x4_2_Xnor2_MMI2-M_u3 XI2_X2X4_2_NET028 XI2_X2X4_2_NET28 VSS! VSS! nch
+ L=6e-08 W=3.9e-07 AD=3.9e-14 AS=6.63e-14 PD=5.9e-07 PS=1.12e-06 NRD=0.25641
+ NRS=0.435897 SA=1.7e-07 SB=4.3e-07 SCA=12.0597 SCB=0.0127828 SCC=0.00109616
mXI2_X2x4_2_Xnor2_MMI2-M_u4 XI2_X2X4_2_NET028 RD_ADDR_1<3> VSS! VSS! nch
+ L=6e-08 W=3.9e-07 AD=3.9e-14 AS=6.63e-14 PD=5.9e-07 PS=1.12e-06 NRD=0.25641
+ NRS=0.435897 SA=4.3e-07 SB=1.7e-07 SCA=12.0518 SCB=0.0127828 SCC=0.00109616
mXI2_X2x4_1_Xnand3_MMU1-M_u4 XI2_X2X4_1_XNAND3_NET1 RD_ADDR_1<3> VSS! VSS! nch
+ L=6e-08 W=1.95e-07 AD=1.95e-14 AS=3.6075e-14 PD=3.95e-07 PS=7.6e-07
+ NRD=0.512821 NRS=0.948718 SA=1.85e-07 SB=4.45e-07 SCA=5.45941 SCB=0.00458762
+ SCC=5.84923e-05
mXI2_X2x4_1_Xnand3_MMU1-M_u3 XI2_X2X4_1_NET26 RD_ADDR_1<2>
+ XI2_X2X4_1_XNAND3_NET1 VSS! nch L=6e-08 W=1.95e-07 AD=3.6075e-14 AS=1.95e-14
+ PD=7.6e-07 PS=3.95e-07 NRD=0.948718 NRS=0.512821 SA=4.45e-07 SB=1.85e-07
+ SCA=5.45941 SCB=0.00458762 SCC=5.84923e-05
mXI2_X2x4_1_Xen0_MM_u2-M_u3 XI2_X2X4_1_XEN0_NET9 XI2_X2X4_1_NET030
+ XI2_X2X4_1_XEN0_NET29 VSS! nch L=6e-08 W=3.9e-07 AD=7.215e-14 AS=2.73e-14
+ PD=1.15e-06 PS=5.3e-07 NRD=0.474359 NRS=0.179487 SA=1.85e-07 SB=9.95e-07
+ SCA=12.034 SCB=0.0127828 SCC=0.00109616
mXI2_X2x4_1_Xen0_MM_u2-M_u4 XI2_X2X4_1_XEN0_NET29 XI2_NET17 VSS! VSS! nch
+ L=6e-08 W=3.9e-07 AD=2.73e-14 AS=7.2e-14 PD=5.3e-07 PS=8.7e-07 NRD=0.179487
+ NRS=0.473373 SA=3.85e-07 SB=7.95e-07 SCA=12.034 SCB=0.0127828 SCC=0.00109616
mXI2_X2x4_1_Xen0_MM_u3_1-M_u2 NET142 XI2_X2X4_1_XEN0_NET9 VSS! VSS! nch L=6e-08
+ W=3.9e-07 AD=3.9e-14 AS=7.2e-14 PD=5.9e-07 PS=8.7e-07 NRD=0.25641 NRS=0.473373
+ SA=7.45e-07 SB=4.35e-07 SCA=12.034 SCB=0.0127828 SCC=0.00109616
mXI2_X2x4_1_Xen0_MM_u3_0-M_u2 NET142 XI2_X2X4_1_XEN0_NET9 VSS! VSS! nch L=6e-08
+ W=3.9e-07 AD=3.9e-14 AS=6.825e-14 PD=5.9e-07 PS=1.13e-06 NRD=0.25641
+ NRS=0.448718 SA=1.005e-06 SB=1.75e-07 SCA=12.034 SCB=0.0127828 SCC=0.00109616
mXI2_X2x4_1_Xen1_MM_u2-M_u3 XI2_X2X4_1_XEN1_NET9 XI2_X2X4_1_NET029
+ XI2_X2X4_1_XEN1_NET29 VSS! nch L=6e-08 W=3.9e-07 AD=7.215e-14 AS=2.73e-14
+ PD=1.15e-06 PS=5.3e-07 NRD=0.474359 NRS=0.179487 SA=1.85e-07 SB=9.95e-07
+ SCA=12.034 SCB=0.0127828 SCC=0.00109616
mXI2_X2x4_1_Xen1_MM_u2-M_u4 XI2_X2X4_1_XEN1_NET29 XI2_NET17 VSS! VSS! nch
+ L=6e-08 W=3.9e-07 AD=2.73e-14 AS=7.2e-14 PD=5.3e-07 PS=8.7e-07 NRD=0.179487
+ NRS=0.473373 SA=3.85e-07 SB=7.95e-07 SCA=12.034 SCB=0.0127828 SCC=0.00109616
mXI2_X2x4_1_Xen1_MM_u3_1-M_u2 NET139 XI2_X2X4_1_XEN1_NET9 VSS! VSS! nch L=6e-08
+ W=3.9e-07 AD=3.9e-14 AS=7.2e-14 PD=5.9e-07 PS=8.7e-07 NRD=0.25641 NRS=0.473373
+ SA=7.45e-07 SB=4.35e-07 SCA=12.034 SCB=0.0127828 SCC=0.00109616
mXI2_X2x4_1_Xen1_MM_u3_0-M_u2 NET139 XI2_X2X4_1_XEN1_NET9 VSS! VSS! nch L=6e-08
+ W=3.9e-07 AD=3.9e-14 AS=6.825e-14 PD=5.9e-07 PS=1.13e-06 NRD=0.25641
+ NRS=0.448718 SA=1.005e-06 SB=1.75e-07 SCA=12.034 SCB=0.0127828 SCC=0.00109616
mXI2_X2x4_1_Xen2_MM_u2-M_u3 XI2_X2X4_1_XEN2_NET9 XI2_X2X4_1_NET028
+ XI2_X2X4_1_XEN2_NET29 VSS! nch L=6e-08 W=3.9e-07 AD=7.215e-14 AS=2.73e-14
+ PD=1.15e-06 PS=5.3e-07 NRD=0.474359 NRS=0.179487 SA=1.85e-07 SB=9.95e-07
+ SCA=12.034 SCB=0.0127828 SCC=0.00109616
mXI2_X2x4_1_Xen2_MM_u2-M_u4 XI2_X2X4_1_XEN2_NET29 XI2_NET17 VSS! VSS! nch
+ L=6e-08 W=3.9e-07 AD=2.73e-14 AS=7.2e-14 PD=5.3e-07 PS=8.7e-07 NRD=0.179487
+ NRS=0.473373 SA=3.85e-07 SB=7.95e-07 SCA=12.034 SCB=0.0127828 SCC=0.00109616
mXI2_X2x4_1_Xen2_MM_u3_1-M_u2 NET136 XI2_X2X4_1_XEN2_NET9 VSS! VSS! nch L=6e-08
+ W=3.9e-07 AD=3.9e-14 AS=7.2e-14 PD=5.9e-07 PS=8.7e-07 NRD=0.25641 NRS=0.473373
+ SA=7.45e-07 SB=4.35e-07 SCA=12.034 SCB=0.0127828 SCC=0.00109616
mXI2_X2x4_1_Xen2_MM_u3_0-M_u2 NET136 XI2_X2X4_1_XEN2_NET9 VSS! VSS! nch L=6e-08
+ W=3.9e-07 AD=3.9e-14 AS=6.825e-14 PD=5.9e-07 PS=1.13e-06 NRD=0.25641
+ NRS=0.448718 SA=1.005e-06 SB=1.75e-07 SCA=12.034 SCB=0.0127828 SCC=0.00109616
mXI2_X2x4_1_Xen3_MM_u2-M_u3 XI2_X2X4_1_XEN3_NET9 XI2_X2X4_1_NET027
+ XI2_X2X4_1_XEN3_NET29 VSS! nch L=6e-08 W=3.9e-07 AD=7.215e-14 AS=2.73e-14
+ PD=1.15e-06 PS=5.3e-07 NRD=0.474359 NRS=0.179487 SA=1.85e-07 SB=9.95e-07
+ SCA=12.034 SCB=0.0127828 SCC=0.00109616
mXI2_X2x4_1_Xen3_MM_u2-M_u4 XI2_X2X4_1_XEN3_NET29 XI2_NET17 VSS! VSS! nch
+ L=6e-08 W=3.9e-07 AD=2.73e-14 AS=7.2e-14 PD=5.3e-07 PS=8.7e-07 NRD=0.179487
+ NRS=0.473373 SA=3.85e-07 SB=7.95e-07 SCA=12.034 SCB=0.0127828 SCC=0.00109616
mXI2_X2x4_1_Xen3_MM_u3_1-M_u2 NET133 XI2_X2X4_1_XEN3_NET9 VSS! VSS! nch L=6e-08
+ W=3.9e-07 AD=3.9e-14 AS=7.2e-14 PD=5.9e-07 PS=8.7e-07 NRD=0.25641 NRS=0.473373
+ SA=7.45e-07 SB=4.35e-07 SCA=12.034 SCB=0.0127828 SCC=0.00109616
mXI2_X2x4_1_Xen3_MM_u3_0-M_u2 NET133 XI2_X2X4_1_XEN3_NET9 VSS! VSS! nch L=6e-08
+ W=3.9e-07 AD=3.9e-14 AS=6.825e-14 PD=5.9e-07 PS=1.13e-06 NRD=0.25641
+ NRS=0.448718 SA=1.005e-06 SB=1.75e-07 SCA=12.034 SCB=0.0127828 SCC=0.00109616
mXI2_X2x4_1_Xinv_1_MM_u2 XI2_X2X4_1_NET27 RD_ADDR_1<3> VSS! VSS! nch L=6e-08
+ W=1.5e-07 AD=2.775e-14 AS=3.96e-14 PD=6.7e-07 PS=9.8e-07 NRD=1.23333 NRS=1.76
+ SA=1.5e-07 SB=1.85e-07 SCA=5.51876 SCB=0.00469289 SCC=5.60826e-05
mXI2_X2x4_1_Xinv_0_MM_u2 XI2_X2X4_1_NET28 RD_ADDR_1<2> VSS! VSS! nch L=6e-08
+ W=1.5e-07 AD=2.775e-14 AS=3.96e-14 PD=6.7e-07 PS=9.8e-07 NRD=1.23333 NRS=1.76
+ SA=1.5e-07 SB=1.85e-07 SCA=5.51876 SCB=0.00469289 SCC=5.60826e-05
mXI2_X2x4_1_Xinv_3_MM_u2 XI2_X2X4_1_NET027 XI2_X2X4_1_NET26 VSS! VSS! nch
+ L=6e-08 W=1.5e-07 AD=2.775e-14 AS=3.96e-14 PD=6.7e-07 PS=9.8e-07 NRD=1.23333
+ NRS=1.76 SA=1.5e-07 SB=1.85e-07 SCA=5.51876 SCB=0.00469289 SCC=5.60826e-05
mXI2_X2x4_1_Xnor0_MMI2-M_u3 XI2_X2X4_1_NET030 RD_ADDR_1<2> VSS! VSS! nch
+ L=6e-08 W=3.9e-07 AD=3.9e-14 AS=6.63e-14 PD=5.9e-07 PS=1.12e-06 NRD=0.25641
+ NRS=0.435897 SA=1.7e-07 SB=4.3e-07 SCA=12.034 SCB=0.0127828 SCC=0.00109616
mXI2_X2x4_1_Xnor0_MMI2-M_u4 XI2_X2X4_1_NET030 RD_ADDR_1<3> VSS! VSS! nch
+ L=6e-08 W=3.9e-07 AD=3.9e-14 AS=6.63e-14 PD=5.9e-07 PS=1.12e-06 NRD=0.25641
+ NRS=0.435897 SA=4.3e-07 SB=1.7e-07 SCA=12.034 SCB=0.0127828 SCC=0.00109616
mXI2_X2x4_1_Xnor1_MMI2-M_u3 XI2_X2X4_1_NET029 RD_ADDR_1<2> VSS! VSS! nch
+ L=6e-08 W=3.9e-07 AD=3.9e-14 AS=6.63e-14 PD=5.9e-07 PS=1.12e-06 NRD=0.25641
+ NRS=0.435897 SA=1.7e-07 SB=4.3e-07 SCA=12.034 SCB=0.0127828 SCC=0.00109616
mXI2_X2x4_1_Xnor1_MMI2-M_u4 XI2_X2X4_1_NET029 XI2_X2X4_1_NET27 VSS! VSS! nch
+ L=6e-08 W=3.9e-07 AD=3.9e-14 AS=6.63e-14 PD=5.9e-07 PS=1.12e-06 NRD=0.25641
+ NRS=0.435897 SA=4.3e-07 SB=1.7e-07 SCA=12.034 SCB=0.0127828 SCC=0.00109616
mXI2_X2x4_1_Xnor2_MMI2-M_u3 XI2_X2X4_1_NET028 XI2_X2X4_1_NET28 VSS! VSS! nch
+ L=6e-08 W=3.9e-07 AD=3.9e-14 AS=6.63e-14 PD=5.9e-07 PS=1.12e-06 NRD=0.25641
+ NRS=0.435897 SA=1.7e-07 SB=4.3e-07 SCA=12.034 SCB=0.0127828 SCC=0.00109616
mXI2_X2x4_1_Xnor2_MMI2-M_u4 XI2_X2X4_1_NET028 RD_ADDR_1<3> VSS! VSS! nch
+ L=6e-08 W=3.9e-07 AD=3.9e-14 AS=6.63e-14 PD=5.9e-07 PS=1.12e-06 NRD=0.25641
+ NRS=0.435897 SA=4.3e-07 SB=1.7e-07 SCA=12.034 SCB=0.0127828 SCC=0.00109616
mXI2_X2x4_3_Xnand3_MMU1-M_u4 XI2_X2X4_3_XNAND3_NET1 RD_ADDR_1<3> VSS! VSS! nch
+ L=6e-08 W=1.95e-07 AD=1.95e-14 AS=3.6075e-14 PD=3.95e-07 PS=7.6e-07
+ NRD=0.512821 NRS=0.948718 SA=1.85e-07 SB=4.45e-07 SCA=5.45941 SCB=0.00458762
+ SCC=5.84923e-05
mXI2_X2x4_3_Xnand3_MMU1-M_u3 XI2_X2X4_3_NET26 RD_ADDR_1<2>
+ XI2_X2X4_3_XNAND3_NET1 VSS! nch L=6e-08 W=1.95e-07 AD=3.6075e-14 AS=1.95e-14
+ PD=7.6e-07 PS=3.95e-07 NRD=0.948718 NRS=0.512821 SA=4.45e-07 SB=1.85e-07
+ SCA=5.45941 SCB=0.00458762 SCC=5.84923e-05
mXI2_X2x4_3_Xen0_MM_u2-M_u3 XI2_X2X4_3_XEN0_NET9 XI2_X2X4_3_NET030
+ XI2_X2X4_3_XEN0_NET29 VSS! nch L=6e-08 W=3.9e-07 AD=7.215e-14 AS=2.73e-14
+ PD=1.15e-06 PS=5.3e-07 NRD=0.474359 NRS=0.179487 SA=1.85e-07 SB=9.95e-07
+ SCA=12.034 SCB=0.0127828 SCC=0.00109616
mXI2_X2x4_3_Xen0_MM_u2-M_u4 XI2_X2X4_3_XEN0_NET29 XI2_NET15 VSS! VSS! nch
+ L=6e-08 W=3.9e-07 AD=2.73e-14 AS=7.2e-14 PD=5.3e-07 PS=8.7e-07 NRD=0.179487
+ NRS=0.473373 SA=3.85e-07 SB=7.95e-07 SCA=12.034 SCB=0.0127828 SCC=0.00109616
mXI2_X2x4_3_Xen0_MM_u3_1-M_u2 NET154 XI2_X2X4_3_XEN0_NET9 VSS! VSS! nch L=6e-08
+ W=3.9e-07 AD=3.9e-14 AS=7.2e-14 PD=5.9e-07 PS=8.7e-07 NRD=0.25641 NRS=0.473373
+ SA=7.45e-07 SB=4.35e-07 SCA=12.034 SCB=0.0127828 SCC=0.00109616
mXI2_X2x4_3_Xen0_MM_u3_0-M_u2 NET154 XI2_X2X4_3_XEN0_NET9 VSS! VSS! nch L=6e-08
+ W=3.9e-07 AD=3.9e-14 AS=6.825e-14 PD=5.9e-07 PS=1.13e-06 NRD=0.25641
+ NRS=0.448718 SA=1.005e-06 SB=1.75e-07 SCA=12.034 SCB=0.0127828 SCC=0.00109616
mXI2_X2x4_3_Xen1_MM_u2-M_u3 XI2_X2X4_3_XEN1_NET9 XI2_X2X4_3_NET029
+ XI2_X2X4_3_XEN1_NET29 VSS! nch L=6e-08 W=3.9e-07 AD=7.215e-14 AS=2.73e-14
+ PD=1.15e-06 PS=5.3e-07 NRD=0.474359 NRS=0.179487 SA=1.85e-07 SB=9.95e-07
+ SCA=12.034 SCB=0.0127828 SCC=0.00109616
mXI2_X2x4_3_Xen1_MM_u2-M_u4 XI2_X2X4_3_XEN1_NET29 XI2_NET15 VSS! VSS! nch
+ L=6e-08 W=3.9e-07 AD=2.73e-14 AS=7.2e-14 PD=5.3e-07 PS=8.7e-07 NRD=0.179487
+ NRS=0.473373 SA=3.85e-07 SB=7.95e-07 SCA=12.034 SCB=0.0127828 SCC=0.00109616
mXI2_X2x4_3_Xen1_MM_u3_1-M_u2 NET151 XI2_X2X4_3_XEN1_NET9 VSS! VSS! nch L=6e-08
+ W=3.9e-07 AD=3.9e-14 AS=7.2e-14 PD=5.9e-07 PS=8.7e-07 NRD=0.25641 NRS=0.473373
+ SA=7.45e-07 SB=4.35e-07 SCA=12.034 SCB=0.0127828 SCC=0.00109616
mXI2_X2x4_3_Xen1_MM_u3_0-M_u2 NET151 XI2_X2X4_3_XEN1_NET9 VSS! VSS! nch L=6e-08
+ W=3.9e-07 AD=3.9e-14 AS=6.825e-14 PD=5.9e-07 PS=1.13e-06 NRD=0.25641
+ NRS=0.448718 SA=1.005e-06 SB=1.75e-07 SCA=12.034 SCB=0.0127828 SCC=0.00109616
mXI2_X2x4_3_Xen2_MM_u2-M_u3 XI2_X2X4_3_XEN2_NET9 XI2_X2X4_3_NET028
+ XI2_X2X4_3_XEN2_NET29 VSS! nch L=6e-08 W=3.9e-07 AD=7.215e-14 AS=2.73e-14
+ PD=1.15e-06 PS=5.3e-07 NRD=0.474359 NRS=0.179487 SA=1.85e-07 SB=9.95e-07
+ SCA=12.034 SCB=0.0127828 SCC=0.00109616
mXI2_X2x4_3_Xen2_MM_u2-M_u4 XI2_X2X4_3_XEN2_NET29 XI2_NET15 VSS! VSS! nch
+ L=6e-08 W=3.9e-07 AD=2.73e-14 AS=7.2e-14 PD=5.3e-07 PS=8.7e-07 NRD=0.179487
+ NRS=0.473373 SA=3.85e-07 SB=7.95e-07 SCA=12.034 SCB=0.0127828 SCC=0.00109616
mXI2_X2x4_3_Xen2_MM_u3_1-M_u2 NET148 XI2_X2X4_3_XEN2_NET9 VSS! VSS! nch L=6e-08
+ W=3.9e-07 AD=3.9e-14 AS=7.2e-14 PD=5.9e-07 PS=8.7e-07 NRD=0.25641 NRS=0.473373
+ SA=7.45e-07 SB=4.35e-07 SCA=12.034 SCB=0.0127828 SCC=0.00109616
mXI2_X2x4_3_Xen2_MM_u3_0-M_u2 NET148 XI2_X2X4_3_XEN2_NET9 VSS! VSS! nch L=6e-08
+ W=3.9e-07 AD=3.9e-14 AS=6.825e-14 PD=5.9e-07 PS=1.13e-06 NRD=0.25641
+ NRS=0.448718 SA=1.005e-06 SB=1.75e-07 SCA=12.034 SCB=0.0127828 SCC=0.00109616
mXI2_X2x4_3_Xen3_MM_u2-M_u3 XI2_X2X4_3_XEN3_NET9 XI2_X2X4_3_NET027
+ XI2_X2X4_3_XEN3_NET29 VSS! nch L=6e-08 W=3.9e-07 AD=7.215e-14 AS=2.73e-14
+ PD=1.15e-06 PS=5.3e-07 NRD=0.474359 NRS=0.179487 SA=1.85e-07 SB=9.95e-07